O=C(CNC(=O)N1COC2OCCOC21)OC1CC2CC3CN(C1)C23
                    3D

 48 52  0  0  0  0  0  0  0  0999 V2000
    2.3684   -3.5171   -0.0543 O   0  0  0  0  0  0  0  0  0  0  0  0
    1.5493   -2.7091   -0.4806 C   0  0  0  0  0  0  0  0  0  0  0  0
    0.4719   -3.0542   -1.5132 C   0  0  0  0  0  0  0  0  0  0  0  0
   -0.4654   -1.9567   -1.7623 N   0  0  0  0  0  0  0  0  0  0  0  0
   -1.5029   -1.7910   -0.8720 C   0  0  0  0  0  0  0  0  0  0  0  0
   -1.8151   -2.6663   -0.0715 O   0  0  0  0  0  0  0  0  0  0  0  0
   -2.1003   -0.5654   -0.9373 N   0  0  0  0  0  0  0  0  0  0  0  0
   -2.2269    0.2561   -2.1224 C   0  0  0  0  0  0  0  0  0  0  0  0
   -3.3072    1.1876   -1.8771 O   0  0  0  0  0  0  0  0  0  0  0  0
   -3.4122    1.2218   -0.4519 C   0  0  0  0  0  0  0  0  0  0  0  0
   -4.6492    1.6650    0.0994 O   0  0  0  0  0  0  0  0  0  0  0  0
   -4.5432    1.5565    1.5394 C   0  0  0  0  0  0  0  0  0  0  0  0
   -4.0951    0.1500    2.0021 C   0  0  0  0  0  0  0  0  0  0  0  0
   -2.8890   -0.2713    1.3219 O   0  0  0  0  0  0  0  0  0  0  0  0
   -3.1798   -0.2311   -0.0677 C   0  0  0  0  0  0  0  0  0  0  0  0
    1.5066   -1.3922   -0.1285 O   0  0  0  0  0  0  0  0  0  0  0  0
    2.2647   -1.0216    1.0405 C   0  0  0  0  0  0  0  0  0  0  0  0
    3.7198   -0.7057    0.7281 C   0  0  0  0  0  0  0  0  0  0  0  0
    3.9090    0.7038    0.2043 C   0  0  0  0  0  0  0  0  0  0  0  0
    3.4195    1.0777   -1.2127 C   0  0  0  0  0  0  0  0  0  0  0  0
    2.5549    2.1816   -0.6080 C   0  0  0  0  0  0  0  0  0  0  0  0
    1.1717    1.7049   -0.1435 C   0  0  0  0  0  0  0  0  0  0  0  0
    1.7046    1.5010    1.2032 N   0  0  0  0  0  0  0  0  0  0  0  0
    1.5538    0.1472    1.7431 C   0  0  0  0  0  0  0  0  0  0  0  0
    3.0654    1.8418    0.7976 C   0  0  0  0  0  0  0  0  0  0  0  0
   -0.0675   -3.9408   -1.1633 H   0  0  0  0  0  0  0  0  0  0  0  0
    0.9516   -3.2767   -2.4716 H   0  0  0  0  0  0  0  0  0  0  0  0
   -0.0080   -1.0966   -2.0133 H   0  0  0  0  0  0  0  0  0  0  0  0
   -1.2971    0.8155   -2.2761 H   0  0  0  0  0  0  0  0  0  0  0  0
   -2.4630   -0.3567   -3.0001 H   0  0  0  0  0  0  0  0  0  0  0  0
   -2.6113    1.8770   -0.0781 H   0  0  0  0  0  0  0  0  0  0  0  0
   -5.5252    1.7997    1.9583 H   0  0  0  0  0  0  0  0  0  0  0  0
   -3.8232    2.3105    1.8762 H   0  0  0  0  0  0  0  0  0  0  0  0
   -4.8815   -0.5864    1.7927 H   0  0  0  0  0  0  0  0  0  0  0  0
   -3.9084    0.1342    3.0812 H   0  0  0  0  0  0  0  0  0  0  0  0
   -4.0323   -0.8834   -0.3031 H   0  0  0  0  0  0  0  0  0  0  0  0
    2.2369   -1.8709    1.7391 H   0  0  0  0  0  0  0  0  0  0  0  0
    4.1499   -1.4257    0.0228 H   0  0  0  0  0  0  0  0  0  0  0  0
    4.2876   -0.7991    1.6645 H   0  0  0  0  0  0  0  0  0  0  0  0
    4.9810    0.9447    0.2910 H   0  0  0  0  0  0  0  0  0  0  0  0
    4.2253    1.4564   -1.8555 H   0  0  0  0  0  0  0  0  0  0  0  0
    2.8814    0.3047   -1.7684 H   0  0  0  0  0  0  0  0  0  0  0  0
    2.6777    3.2053   -0.9567 H   0  0  0  0  0  0  0  0  0  0  0  0
    0.4245    2.5062   -0.1935 H   0  0  0  0  0  0  0  0  0  0  0  0
    0.7549    0.8424   -0.6693 H   0  0  0  0  0  0  0  0  0  0  0  0
    1.9251    0.1735    2.7744 H   0  0  0  0  0  0  0  0  0  0  0  0
    0.4817   -0.0835    1.8205 H   0  0  0  0  0  0  0  0  0  0  0  0
    3.5664    2.6363    1.3516 H   0  0  0  0  0  0  0  0  0  0  0  0
  2  1  2  0  0  0  0
  3  2  1  0  0  0  0
  4  3  1  0  0  0  0
  5  4  1  0  0  0  0
  6  5  2  0  0  0  0
  7  5  1  0  0  0  0
  8  7  1  0  0  0  0
  9  8  1  0  0  0  0
 10  9  1  0  0  0  0
 11 10  1  0  0  0  0
 12 11  1  0  0  0  0
 13 12  1  0  0  0  0
 14 13  1  0  0  0  0
 15 14  1  0  0  0  0
 15 10  1  0  0  0  0
 15  7  1  0  0  0  0
 16  2  1  0  0  0  0
 17 16  1  0  0  0  0
 18 17  1  0  0  0  0
 19 18  1  0  0  0  0
 20 19  1  0  0  0  0
 21 20  1  0  0  0  0
 22 21  1  0  0  0  0
 23 22  1  0  0  0  0
 24 23  1  0  0  0  0
 24 17  1  0  0  0  0
 25 23  1  0  0  0  0
 25 19  1  0  0  0  0
 25 21  1  0  0  0  0
  3 26  1  0  0  0  0
  3 27  1  0  0  0  0
  4 28  1  0  0  0  0
  8 29  1  0  0  0  0
  8 30  1  0  0  0  0
 10 31  1  0  0  0  0
 12 32  1  0  0  0  0
 12 33  1  0  0  0  0
 13 34  1  0  0  0  0
 13 35  1  0  0  0  0
 15 36  1  0  0  0  0
 17 37  1  0  0  0  0
 18 38  1  0  0  0  0
 18 39  1  0  0  0  0
 19 40  1  0  0  0  0
 20 41  1  0  0  0  0
 20 42  1  0  0  0  0
 21 43  1  0  0  0  0
 22 44  1  0  0  0  0
 22 45  1  0  0  0  0
 24 46  1  0  0  0  0
 24 47  1  0  0  0  0
 25 48  1  0  0  0  0
M  END
>  <energy>
32.486799913489428

$$$$
