C1CC2C3CC1C2C3
                    3D

 20 22  0  0  0  0  0  0  0  0999 V2000
   -1.6714   -0.5058    0.3834 C   0  0  0  0  0  0  0  0  0  0  0  0
   -1.4762    0.4301   -0.8122 C   0  0  0  0  0  0  0  0  0  0  0  0
   -0.0607    0.9687   -0.6218 C   0  0  0  0  0  0  0  0  0  0  0  0
    1.1265   -0.0564   -0.8161 C   0  0  0  0  0  0  0  0  0  0  0  0
    0.6379   -1.3479   -0.1663 C   0  0  0  0  0  0  0  0  0  0  0  0
   -0.2498   -0.7024    0.9099 C   0  0  0  0  0  0  0  0  0  0  0  0
    0.3150    0.7257    0.8703 C   0  0  0  0  0  0  0  0  0  0  0  0
    1.7836    0.7173    0.3651 C   0  0  0  0  0  0  0  0  0  0  0  0
   -2.1573   -1.4433    0.0970 H   0  0  0  0  0  0  0  0  0  0  0  0
   -2.2918   -0.0154    1.1429 H   0  0  0  0  0  0  0  0  0  0  0  0
   -2.2185    1.2346   -0.7917 H   0  0  0  0  0  0  0  0  0  0  0  0
   -1.5719   -0.0998   -1.7656 H   0  0  0  0  0  0  0  0  0  0  0  0
    0.1147    1.9710   -1.0276 H   0  0  0  0  0  0  0  0  0  0  0  0
    1.6548   -0.0931   -1.7671 H   0  0  0  0  0  0  0  0  0  0  0  0
    1.4668   -1.9173    0.2677 H   0  0  0  0  0  0  0  0  0  0  0  0
    0.0856   -1.9958   -0.8537 H   0  0  0  0  0  0  0  0  0  0  0  0
   -0.1983   -1.1984    1.8812 H   0  0  0  0  0  0  0  0  0  0  0  0
    0.0008    1.4628    1.6084 H   0  0  0  0  0  0  0  0  0  0  0  0
    2.2062    1.6980    0.1186 H   0  0  0  0  0  0  0  0  0  0  0  0
    2.5038    0.1674    0.9776 H   0  0  0  0  0  0  0  0  0  0  0  0
  2  1  1  0  0  0  0
  3  2  1  0  0  0  0
  4  3  1  0  0  0  0
  5  4  1  0  0  0  0
  6  5  1  0  0  0  0
  6  1  1  0  0  0  0
  7  6  1  0  0  0  0
  7  3  1  0  0  0  0
  8  7  1  0  0  0  0
  8  4  1  0  0  0  0
  1  9  1  0  0  0  0
  1 10  1  0  0  0  0
  2 11  1  0  0  0  0
  2 12  1  0  0  0  0
  3 13  1  0  0  0  0
  4 14  1  0  0  0  0
  5 15  1  0  0  0  0
  5 16  1  0  0  0  0
  6 17  1  0  0  0  0
  7 18  1  0  0  0  0
  8 19  1  0  0  0  0
  8 20  1  0  0  0  0
M  END
>  <energy>
39.534205041685631

$$$$
