C1C2CC1C1CCC21
                    3D

 20 22  0  0  0  0  0  0  0  0999 V2000
   -1.7802   -0.1969   -0.8414 C   0  0  0  0  0  0  0  0  0  0  0  0
   -1.1211    0.7163    0.2629 C   0  0  0  0  0  0  0  0  0  0  0  0
   -0.9782   -0.6389    1.0370 C   0  0  0  0  0  0  0  0  0  0  0  0
   -0.6030   -1.1479   -0.3971 C   0  0  0  0  0  0  0  0  0  0  0  0
    0.6680   -0.3581   -0.8586 C   0  0  0  0  0  0  0  0  0  0  0  0
    1.8489   -0.3755    0.1189 C   0  0  0  0  0  0  0  0  0  0  0  0
    1.4574    1.0334    0.6177 C   0  0  0  0  0  0  0  0  0  0  0  0
    0.2763    1.0518   -0.3594 C   0  0  0  0  0  0  0  0  0  0  0  0
   -1.7535    0.1748   -1.8703 H   0  0  0  0  0  0  0  0  0  0  0  0
   -2.7936   -0.5551   -0.6252 H   0  0  0  0  0  0  0  0  0  0  0  0
   -1.7062    1.5199    0.7066 H   0  0  0  0  0  0  0  0  0  0  0  0
   -0.2231   -0.7070    1.8223 H   0  0  0  0  0  0  0  0  0  0  0  0
   -1.9105   -1.0446    1.4513 H   0  0  0  0  0  0  0  0  0  0  0  0
   -0.6689   -2.2124   -0.6146 H   0  0  0  0  0  0  0  0  0  0  0  0
    0.9207   -0.4318   -1.9197 H   0  0  0  0  0  0  0  0  0  0  0  0
    1.8335   -1.1637    0.8775 H   0  0  0  0  0  0  0  0  0  0  0  0
    2.8261   -0.4044   -0.3762 H   0  0  0  0  0  0  0  0  0  0  0  0
    2.2147    1.7957    0.4029 H   0  0  0  0  0  0  0  0  0  0  0  0
    1.2039    1.1021    1.6799 H   0  0  0  0  0  0  0  0  0  0  0  0
    0.2888    1.8423   -1.1144 H   0  0  0  0  0  0  0  0  0  0  0  0
  2  1  1  0  0  0  0
  3  2  1  0  0  0  0
  4  3  1  0  0  0  0
  4  1  1  0  0  0  0
  5  4  1  0  0  0  0
  6  5  1  0  0  0  0
  7  6  1  0  0  0  0
  8  7  1  0  0  0  0
  8  2  1  0  0  0  0
  8  5  1  0  0  0  0
  1  9  1  0  0  0  0
  1 10  1  0  0  0  0
  2 11  1  0  0  0  0
  3 12  1  0  0  0  0
  3 13  1  0  0  0  0
  4 14  1  0  0  0  0
  5 15  1  0  0  0  0
  6 16  1  0  0  0  0
  6 17  1  0  0  0  0
  7 18  1  0  0  0  0
  7 19  1  0  0  0  0
  8 20  1  0  0  0  0
M  END
>  <energy>
39.332505864493818

$$$$
