C1CC2CC3C1CC23
                    3D

 20 22  0  0  0  0  0  0  0  0999 V2000
    0.7921    1.3704   -0.2831 C   0  0  0  0  0  0  0  0  0  0  0  0
    0.0564    1.2139    1.0530 C   0  0  0  0  0  0  0  0  0  0  0  0
   -0.8574   -0.0104    0.9591 C   0  0  0  0  0  0  0  0  0  0  0  0
   -1.6976   -0.0245   -0.3477 C   0  0  0  0  0  0  0  0  0  0  0  0
   -0.5153   -0.7564   -1.0110 C   0  0  0  0  0  0  0  0  0  0  0  0
    0.8540    0.0001   -0.9622 C   0  0  0  0  0  0  0  0  0  0  0  0
    1.3213   -1.1213    0.0063 C   0  0  0  0  0  0  0  0  0  0  0  0
   -0.1581   -1.2942    0.4001 C   0  0  0  0  0  0  0  0  0  0  0  0
    1.7938    1.7833   -0.1225 H   0  0  0  0  0  0  0  0  0  0  0  0
    0.2543    2.0744   -0.9289 H   0  0  0  0  0  0  0  0  0  0  0  0
   -0.5118    2.1208    1.2856 H   0  0  0  0  0  0  0  0  0  0  0  0
    0.7782    1.0698    1.8657 H   0  0  0  0  0  0  0  0  0  0  0  0
   -1.4395   -0.1701    1.8723 H   0  0  0  0  0  0  0  0  0  0  0  0
   -2.6061   -0.6359   -0.2846 H   0  0  0  0  0  0  0  0  0  0  0  0
   -1.9697    0.9459   -0.7721 H   0  0  0  0  0  0  0  0  0  0  0  0
   -0.6873   -1.4908   -1.7984 H   0  0  0  0  0  0  0  0  0  0  0  0
    1.3930    0.0281   -1.9146 H   0  0  0  0  0  0  0  0  0  0  0  0
    2.0075   -0.8304    0.8066 H   0  0  0  0  0  0  0  0  0  0  0  0
    1.7409   -1.9990   -0.5004 H   0  0  0  0  0  0  0  0  0  0  0  0
   -0.5489   -2.2737    0.6767 H   0  0  0  0  0  0  0  0  0  0  0  0
  2  1  1  0  0  0  0
  3  2  1  0  0  0  0
  4  3  1  0  0  0  0
  5  4  1  0  0  0  0
  6  5  1  0  0  0  0
  6  1  1  0  0  0  0
  7  6  1  0  0  0  0
  8  7  1  0  0  0  0
  8  3  1  0  0  0  0
  8  5  1  0  0  0  0
  1  9  1  0  0  0  0
  1 10  1  0  0  0  0
  2 11  1  0  0  0  0
  2 12  1  0  0  0  0
  3 13  1  0  0  0  0
  4 14  1  0  0  0  0
  4 15  1  0  0  0  0
  5 16  1  0  0  0  0
  6 17  1  0  0  0  0
  7 18  1  0  0  0  0
  7 19  1  0  0  0  0
  8 20  1  0  0  0  0
M  END
>  <energy>
31.848962783918338

$$$$
