CC1(C)OC2C(NCCC#N)CC21
                    3D

 29 30  0  0  0  0  0  0  0  0999 V2000
    2.5927   -0.5407    1.3552 C   0  0  0  0  0  0  0  0  0  0  0  0
    2.1350    0.1780    0.0956 C   0  0  0  0  0  0  0  0  0  0  0  0
    3.2678    1.0043   -0.5180 C   0  0  0  0  0  0  0  0  0  0  0  0
    0.9956    1.0363    0.3783 O   0  0  0  0  0  0  0  0  0  0  0  0
    0.2763    0.4916   -0.7543 C   0  0  0  0  0  0  0  0  0  0  0  0
   -0.8016   -0.5946   -0.5880 C   0  0  0  0  0  0  0  0  0  0  0  0
   -1.4840   -0.5266    0.7080 N   0  0  0  0  0  0  0  0  0  0  0  0
   -2.2644    0.7064    0.8794 C   0  0  0  0  0  0  0  0  0  0  0  0
   -3.4138    0.9483   -0.1044 C   0  0  0  0  0  0  0  0  0  0  0  0
   -4.4268   -0.1093   -0.0515 C   0  0  0  0  0  0  0  0  0  0  0  0
   -5.2278   -0.9476   -0.0210 N   0  0  0  0  0  0  0  0  0  0  0  0
    0.3208   -1.6460   -0.4786 C   0  0  0  0  0  0  0  0  0  0  0  0
    1.3325   -0.5977   -0.9668 C   0  0  0  0  0  0  0  0  0  0  0  0
    3.1110    0.1461    2.0322 H   0  0  0  0  0  0  0  0  0  0  0  0
    1.7569   -0.9620    1.9192 H   0  0  0  0  0  0  0  0  0  0  0  0
    3.2842   -1.3513    1.1071 H   0  0  0  0  0  0  0  0  0  0  0  0
    4.1152    0.3637   -0.7833 H   0  0  0  0  0  0  0  0  0  0  0  0
    3.6260    1.7617    0.1876 H   0  0  0  0  0  0  0  0  0  0  0  0
    2.9419    1.5215   -1.4270 H   0  0  0  0  0  0  0  0  0  0  0  0
    0.1372    1.2198   -1.5574 H   0  0  0  0  0  0  0  0  0  0  0  0
   -1.4519   -0.7275   -1.4594 H   0  0  0  0  0  0  0  0  0  0  0  0
   -2.0605   -1.3431    0.9198 H   0  0  0  0  0  0  0  0  0  0  0  0
   -1.5953    1.5740    0.8530 H   0  0  0  0  0  0  0  0  0  0  0  0
   -2.6721    0.6875    1.8989 H   0  0  0  0  0  0  0  0  0  0  0  0
   -3.0306    1.0507   -1.1256 H   0  0  0  0  0  0  0  0  0  0  0  0
   -3.8879    1.9049    0.1438 H   0  0  0  0  0  0  0  0  0  0  0  0
    0.1960   -2.4871   -1.1718 H   0  0  0  0  0  0  0  0  0  0  0  0
    0.5090   -2.0723    0.5123 H   0  0  0  0  0  0  0  0  0  0  0  0
    1.7186   -0.6889   -1.9833 H   0  0  0  0  0  0  0  0  0  0  0  0
  2  1  1  0  0  0  0
  3  2  1  0  0  0  0
  4  2  1  0  0  0  0
  5  4  1  0  0  0  0
  6  5  1  0  0  0  0
  7  6  1  0  0  0  0
  8  7  1  0  0  0  0
  9  8  1  0  0  0  0
 10  9  1  0  0  0  0
 11 10  3  0  0  0  0
 12  6  1  0  0  0  0
 13 12  1  0  0  0  0
 13  5  1  0  0  0  0
 13  2  1  0  0  0  0
  1 14  1  0  0  0  0
  1 15  1  0  0  0  0
  1 16  1  0  0  0  0
  3 17  1  0  0  0  0
  3 18  1  0  0  0  0
  3 19  1  0  0  0  0
  5 20  1  0  0  0  0
  6 21  1  0  0  0  0
  7 22  1  0  0  0  0
  8 23  1  0  0  0  0
  8 24  1  0  0  0  0
  9 25  1  0  0  0  0
  9 26  1  0  0  0  0
 12 27  1  0  0  0  0
 12 28  1  0  0  0  0
 13 29  1  0  0  0  0
M  END
>  <energy>
54.257056108430561

$$$$
