Fc1cnc2c3c1SN2C1(CCCCC1)C12CC4NC3CN4C1CN2
                    3D

 47 53  0  0  0  0  0  0  0  0999 V2000
   -5.3985   -1.1558    0.8549 F   0  0  0  0  0  0  0  0  0  0  0  0
   -4.2519   -0.8266    0.2508 C   0  0  0  0  0  0  0  0  0  0  0  0
   -3.8492   -1.4379   -0.9245 C   0  0  0  0  0  0  0  0  0  0  0  0
   -2.6360   -1.1687   -1.4762 N   0  0  0  0  0  0  0  0  0  0  0  0
   -1.8478   -0.3355   -0.7538 C   0  0  0  0  0  0  0  0  0  0  0  0
   -2.5245    0.6987   -0.1551 C   0  0  0  0  0  0  0  0  0  0  0  0
   -3.4115    0.1707    0.7674 C   0  0  0  0  0  0  0  0  0  0  0  0
   -1.9242   -0.9288    1.7401 S   0  0  0  0  0  0  0  0  0  0  0  0
   -1.0798   -1.0343    0.2544 N   0  0  0  0  0  0  0  0  0  0  0  0
    0.4093   -0.9252    0.1421 C   0  0  0  0  0  0  0  0  0  0  0  0
    0.7793   -1.6494   -1.1922 C   0  0  0  0  0  0  0  0  0  0  0  0
    2.2623   -1.9160   -1.3675 C   0  0  0  0  0  0  0  0  0  0  0  0
    2.7028   -2.9167   -0.3132 C   0  0  0  0  0  0  0  0  0  0  0  0
    2.4623   -2.3546    1.0792 C   0  0  0  0  0  0  0  0  0  0  0  0
    1.0395   -1.8019    1.3028 C   0  0  0  0  0  0  0  0  0  0  0  0
    0.9482    0.5793    0.1564 C   0  0  0  0  0  0  0  0  0  0  0  0
    0.8823    1.3820   -1.1567 C   0  0  0  0  0  0  0  0  0  0  0  0
   -0.0318    2.5723   -0.8910 C   0  0  0  0  0  0  0  0  0  0  0  0
   -1.3648    2.4490   -1.4723 N   0  0  0  0  0  0  0  0  0  0  0  0
   -2.2923    2.1446   -0.3791 C   0  0  0  0  0  0  0  0  0  0  0  0
   -1.6182    2.8633    0.7905 C   0  0  0  0  0  0  0  0  0  0  0  0
   -0.1710    2.7495    0.5531 N   0  0  0  0  0  0  0  0  0  0  0  0
    0.3970    1.5621    1.2278 C   0  0  0  0  0  0  0  0  0  0  0  0
    1.8600    1.8806    1.5820 C   0  0  0  0  0  0  0  0  0  0  0  0
    2.2979    0.7250    0.7938 N   0  0  0  0  0  0  0  0  0  0  0  0
   -4.4580   -2.1859   -1.4177 H   0  0  0  0  0  0  0  0  0  0  0  0
    0.2587   -2.6178   -1.2128 H   0  0  0  0  0  0  0  0  0  0  0  0
    0.4072   -1.1302   -2.0751 H   0  0  0  0  0  0  0  0  0  0  0  0
    2.8505   -0.9949   -1.2940 H   0  0  0  0  0  0  0  0  0  0  0  0
    2.4464   -2.3233   -2.3644 H   0  0  0  0  0  0  0  0  0  0  0  0
    2.1506   -3.8568   -0.4410 H   0  0  0  0  0  0  0  0  0  0  0  0
    3.7636   -3.1553   -0.4496 H   0  0  0  0  0  0  0  0  0  0  0  0
    2.6634   -3.1389    1.8203 H   0  0  0  0  0  0  0  0  0  0  0  0
    3.2008   -1.5737    1.2709 H   0  0  0  0  0  0  0  0  0  0  0  0
    1.0251   -1.2509    2.2529 H   0  0  0  0  0  0  0  0  0  0  0  0
    0.4013   -2.6875    1.4545 H   0  0  0  0  0  0  0  0  0  0  0  0
    0.5378    0.8198   -2.0231 H   0  0  0  0  0  0  0  0  0  0  0  0
    1.8786    1.7495   -1.4414 H   0  0  0  0  0  0  0  0  0  0  0  0
    0.4244    3.4686   -1.3268 H   0  0  0  0  0  0  0  0  0  0  0  0
   -1.4138    1.7668   -2.2230 H   0  0  0  0  0  0  0  0  0  0  0  0
   -3.2601    2.6094   -0.6000 H   0  0  0  0  0  0  0  0  0  0  0  0
   -1.9353    2.5143    1.7802 H   0  0  0  0  0  0  0  0  0  0  0  0
   -1.8736    3.9324    0.7458 H   0  0  0  0  0  0  0  0  0  0  0  0
   -0.1407    1.1668    2.0900 H   0  0  0  0  0  0  0  0  0  0  0  0
    2.2557    2.8373    1.2159 H   0  0  0  0  0  0  0  0  0  0  0  0
    2.0910    1.8052    2.6505 H   0  0  0  0  0  0  0  0  0  0  0  0
    3.0870    0.9192    0.1741 H   0  0  0  0  0  0  0  0  0  0  0  0
  2  1  1  0  0  0  0
  3  2  2  0  0  0  0
  4  3  1  0  0  0  0
  5  4  2  0  0  0  0
  6  5  1  0  0  0  0
  7  6  2  0  0  0  0
  7  2  1  0  0  0  0
  8  7  1  0  0  0  0
  9  8  1  0  0  0  0
  9  5  1  0  0  0  0
 10  9  1  0  0  0  0
 11 10  1  0  0  0  0
 12 11  1  0  0  0  0
 13 12  1  0  0  0  0
 14 13  1  0  0  0  0
 15 14  1  0  0  0  0
 15 10  1  0  0  0  0
 16 10  1  0  0  0  0
 17 16  1  0  0  0  0
 18 17  1  0  0  0  0
 19 18  1  0  0  0  0
 20 19  1  0  0  0  0
 20  6  1  0  0  0  0
 21 20  1  0  0  0  0
 22 21  1  0  0  0  0
 22 18  1  0  0  0  0
 23 22  1  0  0  0  0
 23 16  1  0  0  0  0
 24 23  1  0  0  0  0
 25 24  1  0  0  0  0
 25 16  1  0  0  0  0
  3 26  1  0  0  0  0
 11 27  1  0  0  0  0
 11 28  1  0  0  0  0
 12 29  1  0  0  0  0
 12 30  1  0  0  0  0
 13 31  1  0  0  0  0
 13 32  1  0  0  0  0
 14 33  1  0  0  0  0
 14 34  1  0  0  0  0
 15 35  1  0  0  0  0
 15 36  1  0  0  0  0
 17 37  1  0  0  0  0
 17 38  1  0  0  0  0
 18 39  1  0  0  0  0
 19 40  1  0  0  0  0
 20 41  1  0  0  0  0
 21 42  1  0  0  0  0
 21 43  1  0  0  0  0
 23 44  1  0  0  0  0
 24 45  1  0  0  0  0
 24 46  1  0  0  0  0
 25 47  1  0  0  0  0
M  END
>  <energy>
214.28476159392113

$$$$
