C#CC(NC(C=O)C(O)O)C1=[N+](CCC=N[NH+]=[N-])C2=[N+](C)c3ccccc3C(=O)C2=C2C=CC=C1N2
                    3D

 61 64  0  0  0  0  0  0  0  0999 V2000
   -1.8269    4.6001   -1.7452 C   0  0  0  0  0  0  0  0  0  0  0  0
   -1.7312    3.5874   -1.1084 C   0  0  0  0  0  0  0  0  0  0  0  0
   -1.6079    2.3637   -0.3005 C   0  0  0  0  0  0  0  0  0  0  0  0
   -2.6594    1.3892   -0.6561 N   0  0  0  0  0  0  0  0  0  0  0  0
   -4.0144    1.8504   -0.2016 C   0  0  0  0  0  0  0  0  0  0  0  0
   -4.9558    1.8840   -1.3878 C   0  0  0  0  0  0  0  0  0  0  0  0
   -6.0535    2.4326   -1.3427 O   0  0  0  0  0  0  0  0  0  0  0  0
   -4.6131    0.8496    0.8330 C   0  0  0  0  0  0  0  0  0  0  0  0
   -3.6105   -0.1176    1.1900 O   0  0  0  0  0  0  0  0  0  0  0  0
   -4.9411    1.5190    2.0274 O   0  0  0  0  0  0  0  0  0  0  0  0
   -0.2770    1.6403   -0.5552 C   0  0  0  0  0  0  0  0  0  0  0  0
    0.1582    0.7761    0.3210 N   0  3  0  0  0  0  0  0  0  0  0  0
   -0.1973    0.7038    1.7700 C   0  0  0  0  0  0  0  0  0  0  0  0
    0.7178    1.6034    2.5943 C   0  0  0  0  0  0  0  0  0  0  0  0
    1.0820    0.8393    3.8315 C   0  0  0  0  0  0  0  0  0  0  0  0
    1.4920   -0.3856    3.7505 N   0  0  0  0  0  0  0  0  0  0  0  0
    2.6981   -0.7032    3.0834 N   0  3  0  0  0  0  0  0  0  0  0  0
    2.7228   -0.6220    1.8426 N   0  5  0  0  0  0  0  0  0  0  0  0
    1.2064   -0.5608   -0.1962 C   0  0  0  0  0  0  0  0  0  0  0  0
    0.8423   -1.7981    0.0301 N   0  3  0  0  0  0  0  0  0  0  0  0
   -0.5576   -2.2379    0.2417 C   0  0  0  0  0  0  0  0  0  0  0  0
    1.8281   -2.8463   -0.0017 C   0  0  0  0  0  0  0  0  0  0  0  0
    1.6148   -4.0611    0.6869 C   0  0  0  0  0  0  0  0  0  0  0  0
    2.5642   -5.0868    0.6376 C   0  0  0  0  0  0  0  0  0  0  0  0
    3.7470   -4.9107   -0.0748 C   0  0  0  0  0  0  0  0  0  0  0  0
    3.9793   -3.7153   -0.7558 C   0  0  0  0  0  0  0  0  0  0  0  0
    3.0178   -2.6934   -0.7164 C   0  0  0  0  0  0  0  0  0  0  0  0
    3.2694   -1.4535   -1.4629 C   0  0  0  0  0  0  0  0  0  0  0  0
    4.1236   -1.4184   -2.3329 O   0  0  0  0  0  0  0  0  0  0  0  0
    2.4121   -0.3001   -1.0865 C   0  0  0  0  0  0  0  0  0  0  0  0
    2.5518    0.8525   -1.7883 C   0  0  0  0  0  0  0  0  0  0  0  0
    2.4888    0.7514   -3.2742 C   0  0  0  0  0  0  0  0  0  0  0  0
    1.3142    1.1096   -3.8548 C   0  0  0  0  0  0  0  0  0  0  0  0
    0.1931    1.5130   -2.9787 C   0  0  0  0  0  0  0  0  0  0  0  0
    0.5455    1.9318   -1.7436 C   0  0  0  0  0  0  0  0  0  0  0  0
    1.8901    2.0187   -1.3937 N   0  0  0  0  0  0  0  0  0  0  0  0
   -1.9278    5.5084   -2.3004 H   0  0  0  0  0  0  0  0  0  0  0  0
   -1.6731    2.6546    0.7538 H   0  0  0  0  0  0  0  0  0  0  0  0
   -2.5332    0.5548   -0.0745 H   0  0  0  0  0  0  0  0  0  0  0  0
   -3.9891    2.8656    0.2096 H   0  0  0  0  0  0  0  0  0  0  0  0
   -4.6529    1.3166   -2.2830 H   0  0  0  0  0  0  0  0  0  0  0  0
   -5.4821    0.3064    0.4443 H   0  0  0  0  0  0  0  0  0  0  0  0
   -3.9986   -0.5706    1.9661 H   0  0  0  0  0  0  0  0  0  0  0  0
   -5.9032    1.4340    2.1440 H   0  0  0  0  0  0  0  0  0  0  0  0
   -1.2388    1.0144    1.8980 H   0  0  0  0  0  0  0  0  0  0  0  0
   -0.1933   -0.3445    2.0631 H   0  0  0  0  0  0  0  0  0  0  0  0
    1.6338    1.9086    2.0760 H   0  0  0  0  0  0  0  0  0  0  0  0
    0.1859    2.5101    2.9053 H   0  0  0  0  0  0  0  0  0  0  0  0
    0.9781    1.3253    4.8140 H   0  0  0  0  0  0  0  0  0  0  0  0
    3.5728   -0.7138    3.5934 H   0  0  0  0  0  0  0  0  0  0  0  0
   -0.7434   -2.4091    1.3065 H   0  0  0  0  0  0  0  0  0  0  0  0
   -1.2381   -1.4728   -0.1478 H   0  0  0  0  0  0  0  0  0  0  0  0
   -0.7401   -3.1451   -0.3487 H   0  0  0  0  0  0  0  0  0  0  0  0
    0.7307   -4.2426    1.2964 H   0  0  0  0  0  0  0  0  0  0  0  0
    2.3948   -6.0209    1.1744 H   0  0  0  0  0  0  0  0  0  0  0  0
    4.4948   -5.7024   -0.0917 H   0  0  0  0  0  0  0  0  0  0  0  0
    4.9138   -3.5890   -1.3061 H   0  0  0  0  0  0  0  0  0  0  0  0
    3.3560    0.4048   -3.8316 H   0  0  0  0  0  0  0  0  0  0  0  0
    1.1553    1.0527   -4.9270 H   0  0  0  0  0  0  0  0  0  0  0  0
   -0.8169    1.2581   -3.2750 H   0  0  0  0  0  0  0  0  0  0  0  0
    2.3005    2.7916   -1.9408 H   0  0  0  0  0  0  0  0  0  0  0  0
  2  1  3  0  0  0  0
  3  2  1  0  0  0  0
  4  3  1  0  0  0  0
  5  4  1  0  0  0  0
  6  5  1  0  0  0  0
  7  6  2  0  0  0  0
  8  5  1  0  0  0  0
  9  8  1  0  0  0  0
 10  8  1  0  0  0  0
 11  3  1  0  0  0  0
 12 11  2  0  0  0  0
 13 12  1  0  0  0  0
 14 13  1  0  0  0  0
 15 14  1  0  0  0  0
 16 15  2  0  0  0  0
 17 16  1  0  0  0  0
 18 17  2  0  0  0  0
 19 12  1  0  0  0  0
 20 19  2  0  0  0  0
 21 20  1  0  0  0  0
 22 20  1  0  0  0  0
 23 22  2  0  0  0  0
 24 23  1  0  0  0  0
 25 24  2  0  0  0  0
 26 25  1  0  0  0  0
 27 26  2  0  0  0  0
 27 22  1  0  0  0  0
 28 27  1  0  0  0  0
 29 28  2  0  0  0  0
 30 28  1  0  0  0  0
 30 19  1  0  0  0  0
 31 30  2  0  0  0  0
 32 31  1  0  0  0  0
 33 32  2  0  0  0  0
 34 33  1  0  0  0  0
 35 34  2  0  0  0  0
 35 11  1  0  0  0  0
 36 35  1  0  0  0  0
 36 31  1  0  0  0  0
  1 37  1  0  0  0  0
  3 38  1  0  0  0  0
  4 39  1  0  0  0  0
  5 40  1  0  0  0  0
  6 41  1  0  0  0  0
  8 42  1  0  0  0  0
  9 43  1  0  0  0  0
 10 44  1  0  0  0  0
 13 45  1  0  0  0  0
 13 46  1  0  0  0  0
 14 47  1  0  0  0  0
 14 48  1  0  0  0  0
 15 49  1  0  0  0  0
 17 50  1  0  0  0  0
 21 51  1  0  0  0  0
 21 52  1  0  0  0  0
 21 53  1  0  0  0  0
 23 54  1  0  0  0  0
 24 55  1  0  0  0  0
 25 56  1  0  0  0  0
 26 57  1  0  0  0  0
 32 58  1  0  0  0  0
 33 59  1  0  0  0  0
 34 60  1  0  0  0  0
 36 61  1  0  0  0  0
M  CHG  4  12   1  17   1  18  -1  20   1
M  END
>  <energy>
37.574576569227588

$$$$
