CCOC(=O)C1C2CCC3C4(C)C1C(O)C3(O)C1(OC)OC(O2)C(C)CC41
                    3D

 57 61  0  0  0  0  0  0  0  0999 V2000
   -5.3430    0.9850    0.3510 C   0  0  0  0  0  0  0  0  0  0  0  0
   -4.9615   -0.0998    1.3473 C   0  0  0  0  0  0  0  0  0  0  0  0
   -3.5321   -0.1013    1.4734 O   0  0  0  0  0  0  0  0  0  0  0  0
   -2.8692   -0.8627    0.5483 C   0  0  0  0  0  0  0  0  0  0  0  0
   -3.3663   -1.7760   -0.0928 O   0  0  0  0  0  0  0  0  0  0  0  0
   -1.4967   -0.2575    0.3163 C   0  0  0  0  0  0  0  0  0  0  0  0
   -1.3490    0.0793   -1.1212 C   0  0  0  0  0  0  0  0  0  0  0  0
   -1.0095   -1.4286   -1.9973 C   0  0  0  0  0  0  0  0  0  0  0  0
    0.2734   -2.6180   -1.4933 C   0  0  0  0  0  0  0  0  0  0  0  0
    1.5680   -2.0367   -0.5814 C   0  0  0  0  0  0  0  0  0  0  0  0
    1.1921   -0.6541   -0.8987 C   0  0  0  0  0  0  0  0  0  0  0  0
    1.3854   -0.4340   -2.4768 C   0  0  0  0  0  0  0  0  0  0  0  0
   -0.2548   -1.0824    0.3163 C   0  0  0  0  0  0  0  0  0  0  0  0
    0.3394   -1.5770    1.6123 C   0  0  0  0  0  0  0  0  0  0  0  0
   -0.0256   -2.9108    1.9396 O   0  0  0  0  0  0  0  0  0  0  0  0
    1.6985   -1.5238    1.0190 C   0  0  0  0  0  0  0  0  0  0  0  0
    2.6495   -2.2950    1.7317 O   0  0  0  0  0  0  0  0  0  0  0  0
    1.9760    0.1260    1.0378 C   0  0  0  0  0  0  0  0  0  0  0  0
    3.0820    0.5134    1.8417 O   0  0  0  0  0  0  0  0  0  0  0  0
    2.7907    0.5583    3.2263 C   0  0  0  0  0  0  0  0  0  0  0  0
    0.7912    0.9851    1.1974 O   0  0  0  0  0  0  0  0  0  0  0  0
    0.2554    1.7773    0.0540 C   0  0  0  0  0  0  0  0  0  0  0  0
   -0.3411    1.1439   -1.1611 O   0  0  0  0  0  0  0  0  0  0  0  0
    1.4055    2.6453   -0.4221 C   0  0  0  0  0  0  0  0  0  0  0  0
    0.9801    3.6145   -1.5268 C   0  0  0  0  0  0  0  0  0  0  0  0
    2.5430    1.7119   -0.8374 C   0  0  0  0  0  0  0  0  0  0  0  0
    2.3609    0.2415   -0.3655 C   0  0  0  0  0  0  0  0  0  0  0  0
   -4.9743    1.9628    0.6778 H   0  0  0  0  0  0  0  0  0  0  0  0
   -6.4249    1.0449    0.2183 H   0  0  0  0  0  0  0  0  0  0  0  0
   -4.8813    0.7994   -0.6222 H   0  0  0  0  0  0  0  0  0  0  0  0
   -5.3444   -1.0828    1.0475 H   0  0  0  0  0  0  0  0  0  0  0  0
   -5.3869    0.1305    2.3317 H   0  0  0  0  0  0  0  0  0  0  0  0
   -1.4498    0.5926    0.9999 H   0  0  0  0  0  0  0  0  0  0  0  0
   -2.2589    0.4910   -1.5731 H   0  0  0  0  0  0  0  0  0  0  0  0
   -0.8664   -1.1753   -3.0570 H   0  0  0  0  0  0  0  0  0  0  0  0
   -1.9281   -2.0285   -1.9855 H   0  0  0  0  0  0  0  0  0  0  0  0
    0.6610   -3.0503   -2.4256 H   0  0  0  0  0  0  0  0  0  0  0  0
   -0.1882   -3.4862   -1.0032 H   0  0  0  0  0  0  0  0  0  0  0  0
    2.5267   -2.3913   -0.9752 H   0  0  0  0  0  0  0  0  0  0  0  0
    2.4581   -0.3118   -2.6891 H   0  0  0  0  0  0  0  0  0  0  0  0
    0.9036    0.4630   -2.8727 H   0  0  0  0  0  0  0  0  0  0  0  0
    1.1561   -1.2593   -3.1514 H   0  0  0  0  0  0  0  0  0  0  0  0
   -0.7562   -2.0227    0.0853 H   0  0  0  0  0  0  0  0  0  0  0  0
    0.1705   -0.9493    2.4862 H   0  0  0  0  0  0  0  0  0  0  0  0
    0.7988   -3.3245    2.2825 H   0  0  0  0  0  0  0  0  0  0  0  0
    3.4629   -1.7570    1.7776 H   0  0  0  0  0  0  0  0  0  0  0  0
    3.7046    0.8552    3.7473 H   0  0  0  0  0  0  0  0  0  0  0  0
    2.0210    1.3047    3.4438 H   0  0  0  0  0  0  0  0  0  0  0  0
    2.4920   -0.4270    3.5956 H   0  0  0  0  0  0  0  0  0  0  0  0
   -0.5266    2.4224    0.4738 H   0  0  0  0  0  0  0  0  0  0  0  0
    1.7604    3.2474    0.4248 H   0  0  0  0  0  0  0  0  0  0  0  0
    0.1495    4.2414   -1.1821 H   0  0  0  0  0  0  0  0  0  0  0  0
    0.6416    3.0927   -2.4282 H   0  0  0  0  0  0  0  0  0  0  0  0
    1.8053    4.2734   -1.8134 H   0  0  0  0  0  0  0  0  0  0  0  0
    3.4671    2.0943   -0.3783 H   0  0  0  0  0  0  0  0  0  0  0  0
    2.7334    1.7703   -1.9141 H   0  0  0  0  0  0  0  0  0  0  0  0
    3.3312   -0.2436   -0.5591 H   0  0  0  0  0  0  0  0  0  0  0  0
  2  1  1  0  0  0  0
  3  2  1  0  0  0  0
  4  3  1  0  0  0  0
  5  4  2  0  0  0  0
  6  4  1  0  0  0  0
  7  6  1  0  0  0  0
  8  7  1  0  0  0  0
  9  8  1  0  0  0  0
 10  9  1  0  0  0  0
 11 10  1  0  0  0  0
 12 11  1  0  0  0  0
 13 11  1  0  0  0  0
 13  6  1  0  0  0  0
 14 13  1  0  0  0  0
 15 14  1  0  0  0  0
 16 14  1  0  0  0  0
 16 10  1  0  0  0  0
 17 16  1  0  0  0  0
 18 16  1  0  0  0  0
 19 18  1  0  0  0  0
 20 19  1  0  0  0  0
 21 18  1  0  0  0  0
 22 21  1  0  0  0  0
 23 22  1  0  0  0  0
 23  7  1  0  0  0  0
 24 22  1  0  0  0  0
 25 24  1  0  0  0  0
 26 24  1  0  0  0  0
 27 26  1  0  0  0  0
 27 11  1  0  0  0  0
 27 18  1  0  0  0  0
  1 28  1  0  0  0  0
  1 29  1  0  0  0  0
  1 30  1  0  0  0  0
  2 31  1  0  0  0  0
  2 32  1  0  0  0  0
  6 33  1  0  0  0  0
  7 34  1  0  0  0  0
  8 35  1  0  0  0  0
  8 36  1  0  0  0  0
  9 37  1  0  0  0  0
  9 38  1  0  0  0  0
 10 39  1  0  0  0  0
 12 40  1  0  0  0  0
 12 41  1  0  0  0  0
 12 42  1  0  0  0  0
 13 43  1  0  0  0  0
 14 44  1  0  0  0  0
 15 45  1  0  0  0  0
 17 46  1  0  0  0  0
 20 47  1  0  0  0  0
 20 48  1  0  0  0  0
 20 49  1  0  0  0  0
 22 50  1  0  0  0  0
 24 51  1  0  0  0  0
 25 52  1  0  0  0  0
 25 53  1  0  0  0  0
 25 54  1  0  0  0  0
 26 55  1  0  0  0  0
 26 56  1  0  0  0  0
 27 57  1  0  0  0  0
M  END
>  <energy>
397.29073725185225

$$$$
