CC(O)C=CC12C3C4C(=O)C5OC3C1(N4CC1CC1)C(O)(C1OCCCN1C)C52
                    3D

 59 65  0  0  0  0  0  0  0  0999 V2000
    4.9509   -0.0256   -1.7738 C   0  0  0  0  0  0  0  0  0  0  0  0
    3.8812    0.8999   -1.2125 C   0  0  0  0  0  0  0  0  0  0  0  0
    3.3391    1.6969   -2.2561 O   0  0  0  0  0  0  0  0  0  0  0  0
    2.7675    0.1010   -0.6135 C   0  0  0  0  0  0  0  0  0  0  0  0
    2.3414    0.2485    0.6445 C   0  0  0  0  0  0  0  0  0  0  0  0
    1.3357   -0.6497    1.1940 C   0  0  0  0  0  0  0  0  0  0  0  0
    1.2528   -2.3474    0.7691 C   0  0  0  0  0  0  0  0  0  0  0  0
   -0.0984   -3.1795    0.9373 C   0  0  0  0  0  0  0  0  0  0  0  0
   -0.5506   -3.2999    2.8426 C   0  0  0  0  0  0  0  0  0  0  0  0
   -1.0784   -4.2633    3.3708 O   0  0  0  0  0  0  0  0  0  0  0  0
   -0.0858   -1.6567    3.7214 C   0  0  0  0  0  0  0  0  0  0  0  0
    0.9319   -2.1084    2.9605 O   0  0  0  0  0  0  0  0  0  0  0  0
    0.2652   -1.8949    1.6868 C   0  0  0  0  0  0  0  0  0  0  0  0
   -0.0563   -0.7799    0.6706 C   0  0  0  0  0  0  0  0  0  0  0  0
   -0.8928   -1.9756    0.1106 N   0  0  0  0  0  0  0  0  0  0  0  0
   -0.6726   -2.0493   -1.3385 C   0  0  0  0  0  0  0  0  0  0  0  0
   -1.8340   -2.7713   -1.9523 C   0  0  0  0  0  0  0  0  0  0  0  0
   -3.2417   -2.2291   -1.8728 C   0  0  0  0  0  0  0  0  0  0  0  0
   -2.5168   -2.2370   -3.1871 C   0  0  0  0  0  0  0  0  0  0  0  0
   -0.7387    0.3123    1.5734 C   0  0  0  0  0  0  0  0  0  0  0  0
   -2.1415    0.0722    1.9188 O   0  0  0  0  0  0  0  0  0  0  0  0
   -0.5216    1.7707    1.0440 C   0  0  0  0  0  0  0  0  0  0  0  0
   -1.2500    2.6741    1.8769 O   0  0  0  0  0  0  0  0  0  0  0  0
   -1.5073    3.9503    1.3121 C   0  0  0  0  0  0  0  0  0  0  0  0
   -0.5054    4.3453    0.2421 C   0  0  0  0  0  0  0  0  0  0  0  0
   -0.3902    3.2745   -0.8426 C   0  0  0  0  0  0  0  0  0  0  0  0
   -0.7642    1.9269   -0.4065 N   0  0  0  0  0  0  0  0  0  0  0  0
   -2.1206    1.5984   -0.8436 C   0  0  0  0  0  0  0  0  0  0  0  0
    0.3196   -0.1254    2.7378 C   0  0  0  0  0  0  0  0  0  0  0  0
    5.4307   -0.5999   -0.9760 H   0  0  0  0  0  0  0  0  0  0  0  0
    5.7172    0.5478   -2.3034 H   0  0  0  0  0  0  0  0  0  0  0  0
    4.5262   -0.7341   -2.4949 H   0  0  0  0  0  0  0  0  0  0  0  0
    4.3357    1.5718   -0.4758 H   0  0  0  0  0  0  0  0  0  0  0  0
    2.4275    1.9280   -2.0097 H   0  0  0  0  0  0  0  0  0  0  0  0
    2.3303   -0.6554   -1.2581 H   0  0  0  0  0  0  0  0  0  0  0  0
    2.7740    1.0012    1.2999 H   0  0  0  0  0  0  0  0  0  0  0  0
    2.1076   -2.9261    1.1295 H   0  0  0  0  0  0  0  0  0  0  0  0
   -0.1351   -4.1508    0.4354 H   0  0  0  0  0  0  0  0  0  0  0  0
   -1.1682   -1.4332    3.7900 H   0  0  0  0  0  0  0  0  0  0  0  0
   -0.8961   -1.7932    1.9362 H   0  0  0  0  0  0  0  0  0  0  0  0
    0.2647   -2.5555   -1.6033 H   0  0  0  0  0  0  0  0  0  0  0  0
   -0.6194   -1.0355   -1.7506 H   0  0  0  0  0  0  0  0  0  0  0  0
   -1.7267   -3.8464   -1.8789 H   0  0  0  0  0  0  0  0  0  0  0  0
   -4.0387   -2.9493   -1.7255 H   0  0  0  0  0  0  0  0  0  0  0  0
   -3.4161   -1.2732   -1.3956 H   0  0  0  0  0  0  0  0  0  0  0  0
   -2.2105   -1.2831   -3.6019 H   0  0  0  0  0  0  0  0  0  0  0  0
   -2.8496   -2.9483   -3.9346 H   0  0  0  0  0  0  0  0  0  0  0  0
   -2.4589   -0.5240    1.2133 H   0  0  0  0  0  0  0  0  0  0  0  0
    0.5336    2.0209    1.2143 H   0  0  0  0  0  0  0  0  0  0  0  0
   -1.4905    4.6785    2.1292 H   0  0  0  0  0  0  0  0  0  0  0  0
   -2.5273    3.9512    0.9167 H   0  0  0  0  0  0  0  0  0  0  0  0
   -0.7931    5.3043   -0.2011 H   0  0  0  0  0  0  0  0  0  0  0  0
    0.4750    4.4856    0.7080 H   0  0  0  0  0  0  0  0  0  0  0  0
   -0.9577    3.5762   -1.7325 H   0  0  0  0  0  0  0  0  0  0  0  0
    0.6538    3.2397   -1.1753 H   0  0  0  0  0  0  0  0  0  0  0  0
   -2.3485    0.5490   -0.6558 H   0  0  0  0  0  0  0  0  0  0  0  0
   -2.2117    1.7274   -1.9320 H   0  0  0  0  0  0  0  0  0  0  0  0
   -2.8948    2.2120   -0.3757 H   0  0  0  0  0  0  0  0  0  0  0  0
    0.7485    0.6364    3.3940 H   0  0  0  0  0  0  0  0  0  0  0  0
  2  1  1  0  0  0  0
  3  2  1  0  0  0  0
  4  2  1  0  0  0  0
  5  4  2  0  0  0  0
  6  5  1  0  0  0  0
  7  6  1  0  0  0  0
  8  7  1  0  0  0  0
  9  8  1  0  0  0  0
 10  9  2  0  0  0  0
 11  9  1  0  0  0  0
 12 11  1  0  0  0  0
 13 12  1  0  0  0  0
 13  7  1  0  0  0  0
 14 13  1  0  0  0  0
 14  6  1  0  0  0  0
 15 14  1  0  0  0  0
 15  8  1  0  0  0  0
 16 15  1  0  0  0  0
 17 16  1  0  0  0  0
 18 17  1  0  0  0  0
 19 18  1  0  0  0  0
 19 17  1  0  0  0  0
 20 14  1  0  0  0  0
 21 20  1  0  0  0  0
 22 20  1  0  0  0  0
 23 22  1  0  0  0  0
 24 23  1  0  0  0  0
 25 24  1  0  0  0  0
 26 25  1  0  0  0  0
 27 26  1  0  0  0  0
 27 22  1  0  0  0  0
 28 27  1  0  0  0  0
 29 20  1  0  0  0  0
 29 11  1  0  0  0  0
 29  6  1  0  0  0  0
  1 30  1  0  0  0  0
  1 31  1  0  0  0  0
  1 32  1  0  0  0  0
  2 33  1  0  0  0  0
  3 34  1  0  0  0  0
  4 35  1  0  0  0  0
  5 36  1  0  0  0  0
  7 37  1  0  0  0  0
  8 38  1  0  0  0  0
 11 39  1  0  0  0  0
 13 40  1  0  0  0  0
 16 41  1  0  0  0  0
 16 42  1  0  0  0  0
 17 43  1  0  0  0  0
 18 44  1  0  0  0  0
 18 45  1  0  0  0  0
 19 46  1  0  0  0  0
 19 47  1  0  0  0  0
 21 48  1  0  0  0  0
 22 49  1  0  0  0  0
 24 50  1  0  0  0  0
 24 51  1  0  0  0  0
 25 52  1  0  0  0  0
 25 53  1  0  0  0  0
 26 54  1  0  0  0  0
 26 55  1  0  0  0  0
 28 56  1  0  0  0  0
 28 57  1  0  0  0  0
 28 58  1  0  0  0  0
 29 59  1  0  0  0  0
M  END
>  <energy>
667.52253513202868

$$$$
