CNC(=O)C(N)C12CC3C4C5C(CCC3(C(=O)O)CC41)C52
                    3D

 43 47  0  0  0  0  0  0  0  0999 V2000
   -4.8568    1.4015   -0.3442 C   0  0  0  0  0  0  0  0  0  0  0  0
   -3.4938    1.6673    0.0418 N   0  0  0  0  0  0  0  0  0  0  0  0
   -2.5489    2.0594   -0.8878 C   0  0  0  0  0  0  0  0  0  0  0  0
   -2.8361    2.3125   -2.0555 O   0  0  0  0  0  0  0  0  0  0  0  0
   -1.1179    2.2089   -0.3112 C   0  0  0  0  0  0  0  0  0  0  0  0
   -0.3548    3.1890   -1.1102 N   0  0  0  0  0  0  0  0  0  0  0  0
   -0.3857    0.8632   -0.2372 C   0  0  0  0  0  0  0  0  0  0  0  0
   -0.9820   -0.2046    0.7070 C   0  0  0  0  0  0  0  0  0  0  0  0
    0.2090   -1.2963    0.8715 C   0  0  0  0  0  0  0  0  0  0  0  0
    1.0598   -0.4432   -0.1190 C   0  0  0  0  0  0  0  0  0  0  0  0
    1.3191   -0.1362   -1.5330 C   0  0  0  0  0  0  0  0  0  0  0  0
    0.9892   -1.2658   -2.3164 C   0  0  0  0  0  0  0  0  0  0  0  0
    1.6238   -2.5143   -1.4569 C   0  0  0  0  0  0  0  0  0  0  0  0
    2.4809   -2.2010   -0.0177 C   0  0  0  0  0  0  0  0  0  0  0  0
    1.6834   -1.4007    1.2989 C   0  0  0  0  0  0  0  0  0  0  0  0
    1.9616   -2.2294    2.5379 C   0  0  0  0  0  0  0  0  0  0  0  0
    1.3245   -3.1943    2.9273 O   0  0  0  0  0  0  0  0  0  0  0  0
    3.0728   -1.8393    3.1878 O   0  0  0  0  0  0  0  0  0  0  0  0
    1.8270    0.1800    1.5852 C   0  0  0  0  0  0  0  0  0  0  0  0
    1.0233    0.9089    0.4562 C   0  0  0  0  0  0  0  0  0  0  0  0
   -0.0256    0.2154   -1.8532 C   0  0  0  0  0  0  0  0  0  0  0  0
   -5.4852    1.4760    0.5456 H   0  0  0  0  0  0  0  0  0  0  0  0
   -4.9136    0.3882   -0.7499 H   0  0  0  0  0  0  0  0  0  0  0  0
   -5.1956    2.1163   -1.0976 H   0  0  0  0  0  0  0  0  0  0  0  0
   -3.1951    1.3753    0.9612 H   0  0  0  0  0  0  0  0  0  0  0  0
   -1.2216    2.6289    0.6966 H   0  0  0  0  0  0  0  0  0  0  0  0
    0.2833    3.7137   -0.5194 H   0  0  0  0  0  0  0  0  0  0  0  0
   -1.0054    3.8575   -1.5282 H   0  0  0  0  0  0  0  0  0  0  0  0
   -1.8624   -0.6962    0.2784 H   0  0  0  0  0  0  0  0  0  0  0  0
   -1.2454    0.2348    1.6792 H   0  0  0  0  0  0  0  0  0  0  0  0
   -0.0957   -1.4247    1.9187 H   0  0  0  0  0  0  0  0  0  0  0  0
    0.2740   -1.1268   -0.5433 H   0  0  0  0  0  0  0  0  0  0  0  0
    2.1630    0.4868   -1.7785 H   0  0  0  0  0  0  0  0  0  0  0  0
    1.2648   -1.3032   -3.3646 H   0  0  0  0  0  0  0  0  0  0  0  0
    0.8093   -3.2115   -1.2257 H   0  0  0  0  0  0  0  0  0  0  0  0
    2.3257   -3.0247   -2.1283 H   0  0  0  0  0  0  0  0  0  0  0  0
    2.8158   -3.1823    0.3432 H   0  0  0  0  0  0  0  0  0  0  0  0
    3.3797   -1.6183   -0.2652 H   0  0  0  0  0  0  0  0  0  0  0  0
    3.1529   -2.4802    3.9254 H   0  0  0  0  0  0  0  0  0  0  0  0
    1.4261    0.4513    2.5694 H   0  0  0  0  0  0  0  0  0  0  0  0
    2.8879    0.4618    1.5613 H   0  0  0  0  0  0  0  0  0  0  0  0
    1.6704    1.6686    0.0018 H   0  0  0  0  0  0  0  0  0  0  0  0
   -0.2058    0.9275   -2.6517 H   0  0  0  0  0  0  0  0  0  0  0  0
  2  1  1  0  0  0  0
  3  2  1  0  0  0  0
  4  3  2  0  0  0  0
  5  3  1  0  0  0  0
  6  5  1  0  0  0  0
  7  5  1  0  0  0  0
  8  7  1  0  0  0  0
  9  8  1  0  0  0  0
 10  9  1  0  0  0  0
 11 10  1  0  0  0  0
 12 11  1  0  0  0  0
 13 12  1  0  0  0  0
 14 13  1  0  0  0  0
 15 14  1  0  0  0  0
 15  9  1  0  0  0  0
 16 15  1  0  0  0  0
 17 16  2  0  0  0  0
 18 16  1  0  0  0  0
 19 15  1  0  0  0  0
 20 19  1  0  0  0  0
 20 10  1  0  0  0  0
 20  7  1  0  0  0  0
 21 12  1  0  0  0  0
 21 11  1  0  0  0  0
 21  7  1  0  0  0  0
  1 22  1  0  0  0  0
  1 23  1  0  0  0  0
  1 24  1  0  0  0  0
  2 25  1  0  0  0  0
  5 26  1  0  0  0  0
  6 27  1  0  0  0  0
  6 28  1  0  0  0  0
  8 29  1  0  0  0  0
  8 30  1  0  0  0  0
  9 31  1  0  0  0  0
 10 32  1  0  0  0  0
 11 33  1  0  0  0  0
 12 34  1  0  0  0  0
 13 35  1  0  0  0  0
 13 36  1  0  0  0  0
 14 37  1  0  0  0  0
 14 38  1  0  0  0  0
 18 39  1  0  0  0  0
 19 40  1  0  0  0  0
 19 41  1  0  0  0  0
 20 42  1  0  0  0  0
 21 43  1  0  0  0  0
M  END
>  <energy>
469.31716834229024

$$$$
