N#CN1C2NC(C2O)C(Br)C23CC(O)(C2)C13
                    3D

 28 31  0  0  0  0  0  0  0  0999 V2000
   -0.2865    3.9702    0.3695 N   0  0  0  0  0  0  0  0  0  0  0  0
   -0.3182    2.8136    0.3534 C   0  0  0  0  0  0  0  0  0  0  0  0
   -0.3637    1.4744    0.3278 N   0  0  0  0  0  0  0  0  0  0  0  0
   -1.6224    0.7250    0.6762 C   0  0  0  0  0  0  0  0  0  0  0  0
   -1.3306   -0.4438    1.5257 N   0  0  0  0  0  0  0  0  0  0  0  0
   -1.5113   -1.3567    0.3658 C   0  0  0  0  0  0  0  0  0  0  0  0
   -2.2755   -0.2207   -0.3715 C   0  0  0  0  0  0  0  0  0  0  0  0
   -1.9907   -0.0256   -1.7753 O   0  0  0  0  0  0  0  0  0  0  0  0
   -0.2240   -1.9091   -0.2612 C   0  0  0  0  0  0  0  0  0  0  0  0
    0.3884   -3.4667    0.7318 Br  0  0  0  0  0  0  0  0  0  0  0  0
    0.8067   -0.8477   -0.1942 C   0  0  0  0  0  0  0  0  0  0  0  0
    1.7563   -0.2961    0.9734 C   0  0  0  0  0  0  0  0  0  0  0  0
    2.1019    0.6090   -0.2274 C   0  0  0  0  0  0  0  0  0  0  0  0
    3.0408    1.6572   -0.2649 O   0  0  0  0  0  0  0  0  0  0  0  0
    2.1214   -0.6903   -1.0809 C   0  0  0  0  0  0  0  0  0  0  0  0
    0.5802    0.6812   -0.5538 C   0  0  0  0  0  0  0  0  0  0  0  0
   -2.3516    1.4023    1.1403 H   0  0  0  0  0  0  0  0  0  0  0  0
   -2.0182   -0.5864    2.2652 H   0  0  0  0  0  0  0  0  0  0  0  0
   -2.1989   -2.1860    0.5875 H   0  0  0  0  0  0  0  0  0  0  0  0
   -3.3621   -0.2965   -0.2281 H   0  0  0  0  0  0  0  0  0  0  0  0
   -2.3895    0.8352   -1.9959 H   0  0  0  0  0  0  0  0  0  0  0  0
   -0.4095   -2.2529   -1.2826 H   0  0  0  0  0  0  0  0  0  0  0  0
    2.5444   -0.9690    1.3293 H   0  0  0  0  0  0  0  0  0  0  0  0
    1.2963    0.1854    1.8403 H   0  0  0  0  0  0  0  0  0  0  0  0
    2.7470    2.2893    0.4150 H   0  0  0  0  0  0  0  0  0  0  0  0
    1.9785   -0.5850   -2.1614 H   0  0  0  0  0  0  0  0  0  0  0  0
    2.9309   -1.4042   -0.8947 H   0  0  0  0  0  0  0  0  0  0  0  0
    0.3597    0.8938   -1.6094 H   0  0  0  0  0  0  0  0  0  0  0  0
  2  1  3  0  0  0  0
  3  2  1  0  0  0  0
  4  3  1  0  0  0  0
  5  4  1  0  0  0  0
  6  5  1  0  0  0  0
  7  6  1  0  0  0  0
  7  4  1  0  0  0  0
  8  7  1  0  0  0  0
  9  6  1  0  0  0  0
 10  9  1  0  0  0  0
 11  9  1  0  0  0  0
 12 11  1  0  0  0  0
 13 12  1  0  0  0  0
 14 13  1  0  0  0  0
 15 13  1  0  0  0  0
 15 11  1  0  0  0  0
 16 13  1  0  0  0  0
 16  3  1  0  0  0  0
 16 11  1  0  0  0  0
  4 17  1  0  0  0  0
  5 18  1  0  0  0  0
  6 19  1  0  0  0  0
  7 20  1  0  0  0  0
  8 21  1  0  0  0  0
  9 22  1  0  0  0  0
 12 23  1  0  0  0  0
 12 24  1  0  0  0  0
 14 25  1  0  0  0  0
 15 26  1  0  0  0  0
 15 27  1  0  0  0  0
 16 28  1  0  0  0  0
M  END
>  <energy>
62.42005764721015

$$$$
