CC1(O)C2CC3C(Br)C(CN3O)(O2)C1N
                    3D

 30 32  0  0  0  0  0  0  0  0999 V2000
    2.0968   -0.7824   -1.0126 C   0  0  0  0  0  0  0  0  0  0  0  0
    1.5923   -0.1417    0.2777 C   0  0  0  0  0  0  0  0  0  0  0  0
    2.7888   -0.0114    1.0945 O   0  0  0  0  0  0  0  0  0  0  0  0
    0.5506   -1.0310    1.0672 C   0  0  0  0  0  0  0  0  0  0  0  0
   -0.8291   -1.6831    0.7097 C   0  0  0  0  0  0  0  0  0  0  0  0
   -2.1257   -0.6498    0.5130 C   0  0  0  0  0  0  0  0  0  0  0  0
   -1.9112    0.8768    0.9778 C   0  0  0  0  0  0  0  0  0  0  0  0
   -2.3381    1.1504    2.8484 Br  0  0  0  0  0  0  0  0  0  0  0  0
   -0.4990    0.8904    0.5100 C   0  0  0  0  0  0  0  0  0  0  0  0
   -0.9182    0.4132   -1.0140 C   0  0  0  0  0  0  0  0  0  0  0  0
   -2.1968   -0.3016   -0.9102 N   0  0  0  0  0  0  0  0  0  0  0  0
   -2.1368   -1.4999   -1.7174 O   0  0  0  0  0  0  0  0  0  0  0  0
   -0.0505    0.0723    1.6687 O   0  0  0  0  0  0  0  0  0  0  0  0
    0.9092    1.3611    0.2901 C   0  0  0  0  0  0  0  0  0  0  0  0
    1.2490    2.2406   -0.8281 N   0  0  0  0  0  0  0  0  0  0  0  0
    2.5639   -0.0389   -1.6662 H   0  0  0  0  0  0  0  0  0  0  0  0
    1.3378   -1.3229   -1.5796 H   0  0  0  0  0  0  0  0  0  0  0  0
    2.8776   -1.5203   -0.7882 H   0  0  0  0  0  0  0  0  0  0  0  0
    3.3550    0.6548    0.6698 H   0  0  0  0  0  0  0  0  0  0  0  0
    1.0614   -1.6429    1.8188 H   0  0  0  0  0  0  0  0  0  0  0  0
   -0.7176   -2.4050   -0.1049 H   0  0  0  0  0  0  0  0  0  0  0  0
   -1.1185   -2.2843    1.5850 H   0  0  0  0  0  0  0  0  0  0  0  0
   -3.0591   -1.0961    0.8683 H   0  0  0  0  0  0  0  0  0  0  0  0
   -2.5656    1.5918    0.4601 H   0  0  0  0  0  0  0  0  0  0  0  0
   -1.1013    1.3088   -1.6221 H   0  0  0  0  0  0  0  0  0  0  0  0
   -0.1939   -0.1885   -1.5445 H   0  0  0  0  0  0  0  0  0  0  0  0
   -2.9481   -1.4149   -2.2547 H   0  0  0  0  0  0  0  0  0  0  0  0
    1.2693    1.8791    1.1925 H   0  0  0  0  0  0  0  0  0  0  0  0
    2.2521    2.4252   -0.8230 H   0  0  0  0  0  0  0  0  0  0  0  0
    0.8056    3.1501   -0.6860 H   0  0  0  0  0  0  0  0  0  0  0  0
  2  1  1  0  0  0  0
  3  2  1  0  0  0  0
  4  2  1  0  0  0  0
  5  4  1  0  0  0  0
  6  5  1  0  0  0  0
  7  6  1  0  0  0  0
  8  7  1  0  0  0  0
  9  7  1  0  0  0  0
 10  9  1  0  0  0  0
 11 10  1  0  0  0  0
 11  6  1  0  0  0  0
 12 11  1  0  0  0  0
 13  9  1  0  0  0  0
 13  4  1  0  0  0  0
 14  9  1  0  0  0  0
 14  2  1  0  0  0  0
 15 14  1  0  0  0  0
  1 16  1  0  0  0  0
  1 17  1  0  0  0  0
  1 18  1  0  0  0  0
  3 19  1  0  0  0  0
  4 20  1  0  0  0  0
  5 21  1  0  0  0  0
  5 22  1  0  0  0  0
  6 23  1  0  0  0  0
  7 24  1  0  0  0  0
 10 25  1  0  0  0  0
 10 26  1  0  0  0  0
 12 27  1  0  0  0  0
 14 28  1  0  0  0  0
 15 29  1  0  0  0  0
 15 30  1  0  0  0  0
M  END
>  <energy>
281.85648830988401

$$$$
