CC1(N)C2C3CCC4C5C6NCC4(Br)C5C1C6C32
                    3D

 39 44  0  0  0  0  0  0  0  0999 V2000
    2.0863    1.1925   -1.7812 C   0  0  0  0  0  0  0  0  0  0  0  0
    1.5983    1.3093   -0.3399 C   0  0  0  0  0  0  0  0  0  0  0  0
    2.1423    2.5888    0.1554 N   0  0  0  0  0  0  0  0  0  0  0  0
    2.1269    0.2304    0.6096 C   0  0  0  0  0  0  0  0  0  0  0  0
    1.5550   -1.1849    0.8525 C   0  0  0  0  0  0  0  0  0  0  0  0
    1.1323   -2.0085   -0.3780 C   0  0  0  0  0  0  0  0  0  0  0  0
   -0.2968   -2.6255   -0.5755 C   0  0  0  0  0  0  0  0  0  0  0  0
   -1.5758   -1.7220   -0.5100 C   0  0  0  0  0  0  0  0  0  0  0  0
   -1.1730   -0.8973    0.7046 C   0  0  0  0  0  0  0  0  0  0  0  0
   -1.4411    0.3693    1.5255 C   0  0  0  0  0  0  0  0  0  0  0  0
   -2.5863    1.1140    0.9673 N   0  0  0  0  0  0  0  0  0  0  0  0
   -3.1168    0.5263   -0.2964 C   0  0  0  0  0  0  0  0  0  0  0  0
   -2.0635   -0.2721   -1.1062 C   0  0  0  0  0  0  0  0  0  0  0  0
   -2.4224   -0.3370   -3.0091 Br  0  0  0  0  0  0  0  0  0  0  0  0
   -0.6595    0.0861   -0.6660 C   0  0  0  0  0  0  0  0  0  0  0  0
    0.0514    1.3184   -0.1288 C   0  0  0  0  0  0  0  0  0  0  0  0
   -0.0864    1.0476    1.3657 C   0  0  0  0  0  0  0  0  0  0  0  0
    1.0783    0.0719    1.6651 C   0  0  0  0  0  0  0  0  0  0  0  0
    1.6953    2.0128   -2.3949 H   0  0  0  0  0  0  0  0  0  0  0  0
    3.1819    1.2302   -1.8310 H   0  0  0  0  0  0  0  0  0  0  0  0
    1.8002    0.2632   -2.2736 H   0  0  0  0  0  0  0  0  0  0  0  0
    3.1583    2.5822    0.0882 H   0  0  0  0  0  0  0  0  0  0  0  0
    1.9194    2.7102    1.1408 H   0  0  0  0  0  0  0  0  0  0  0  0
    3.1663    0.3655    0.8855 H   0  0  0  0  0  0  0  0  0  0  0  0
    2.1645   -1.8473    1.4735 H   0  0  0  0  0  0  0  0  0  0  0  0
    1.7956   -2.8880   -0.3534 H   0  0  0  0  0  0  0  0  0  0  0  0
    1.4628   -1.5269   -1.2992 H   0  0  0  0  0  0  0  0  0  0  0  0
   -0.4130   -3.4113    0.1847 H   0  0  0  0  0  0  0  0  0  0  0  0
   -0.3062   -3.1425   -1.5435 H   0  0  0  0  0  0  0  0  0  0  0  0
   -2.4439   -2.3912   -0.4041 H   0  0  0  0  0  0  0  0  0  0  0  0
   -2.0322   -1.3324    1.2553 H   0  0  0  0  0  0  0  0  0  0  0  0
   -1.6108    0.1418    2.5866 H   0  0  0  0  0  0  0  0  0  0  0  0
   -3.3416    1.1643    1.6509 H   0  0  0  0  0  0  0  0  0  0  0  0
   -3.9654   -0.1281   -0.0629 H   0  0  0  0  0  0  0  0  0  0  0  0
   -3.5053    1.3622   -0.8886 H   0  0  0  0  0  0  0  0  0  0  0  0
   -0.0276   -0.2928   -1.4697 H   0  0  0  0  0  0  0  0  0  0  0  0
   -0.4266    2.2413   -0.4734 H   0  0  0  0  0  0  0  0  0  0  0  0
    0.0008    1.9587    1.9674 H   0  0  0  0  0  0  0  0  0  0  0  0
    1.3782    0.1206    2.7066 H   0  0  0  0  0  0  0  0  0  0  0  0
  2  1  1  0  0  0  0
  3  2  1  0  0  0  0
  4  2  1  0  0  0  0
  5  4  1  0  0  0  0
  6  5  1  0  0  0  0
  7  6  1  0  0  0  0
  8  7  1  0  0  0  0
  9  8  1  0  0  0  0
 10  9  1  0  0  0  0
 11 10  1  0  0  0  0
 12 11  1  0  0  0  0
 13 12  1  0  0  0  0
 13  8  1  0  0  0  0
 14 13  1  0  0  0  0
 15 13  1  0  0  0  0
 15  9  1  0  0  0  0
 16 15  1  0  0  0  0
 16  2  1  0  0  0  0
 17 16  1  0  0  0  0
 17 10  1  0  0  0  0
 18 17  1  0  0  0  0
 18  5  1  0  0  0  0
 18  4  1  0  0  0  0
  1 19  1  0  0  0  0
  1 20  1  0  0  0  0
  1 21  1  0  0  0  0
  3 22  1  0  0  0  0
  3 23  1  0  0  0  0
  4 24  1  0  0  0  0
  5 25  1  0  0  0  0
  6 26  1  0  0  0  0
  6 27  1  0  0  0  0
  7 28  1  0  0  0  0
  7 29  1  0  0  0  0
  8 30  1  0  0  0  0
  9 31  1  0  0  0  0
 10 32  1  0  0  0  0
 11 33  1  0  0  0  0
 12 34  1  0  0  0  0
 12 35  1  0  0  0  0
 15 36  1  0  0  0  0
 16 37  1  0  0  0  0
 17 38  1  0  0  0  0
 18 39  1  0  0  0  0
M  END
>  <energy>
209.2735292414545

$$$$
