C#CCNC1C2CC3C4CC(C32)C41
                    3D

 28 31  0  0  0  0  0  0  0  0999 V2000
   -4.4606    0.6364   -0.8705 C   0  0  0  0  0  0  0  0  0  0  0  0
   -3.6087   -0.2112   -0.8638 C   0  0  0  0  0  0  0  0  0  0  0  0
   -2.5569   -1.2381   -0.8135 C   0  0  0  0  0  0  0  0  0  0  0  0
   -1.6093   -0.9595    0.2663 N   0  0  0  0  0  0  0  0  0  0  0  0
   -0.6487    0.0930   -0.0717 C   0  0  0  0  0  0  0  0  0  0  0  0
    0.0303    0.6207    1.2027 C   0  0  0  0  0  0  0  0  0  0  0  0
    0.8039    1.9394    0.9507 C   0  0  0  0  0  0  0  0  0  0  0  0
    2.0166    1.0857    0.5710 C   0  0  0  0  0  0  0  0  0  0  0  0
    1.8960    0.4161   -0.8378 C   0  0  0  0  0  0  0  0  0  0  0  0
    2.6532   -0.9361   -0.6194 C   0  0  0  0  0  0  0  0  0  0  0  0
    1.4429   -1.2172    0.3225 C   0  0  0  0  0  0  0  0  0  0  0  0
    1.4091   -0.0841    1.3976 C   0  0  0  0  0  0  0  0  0  0  0  0
    0.5839   -0.4873   -0.7616 C   0  0  0  0  0  0  0  0  0  0  0  0
   -5.2109    1.3916   -0.8563 H   0  0  0  0  0  0  0  0  0  0  0  0
   -3.0240   -2.2090   -0.6103 H   0  0  0  0  0  0  0  0  0  0  0  0
   -2.0532   -1.3361   -1.7825 H   0  0  0  0  0  0  0  0  0  0  0  0
   -2.1498   -0.6784    1.0859 H   0  0  0  0  0  0  0  0  0  0  0  0
   -1.1069    0.9127   -0.6365 H   0  0  0  0  0  0  0  0  0  0  0  0
   -0.6149    0.6677    2.0868 H   0  0  0  0  0  0  0  0  0  0  0  0
    0.9632    2.5336    1.8588 H   0  0  0  0  0  0  0  0  0  0  0  0
    0.4161    2.5994    0.1675 H   0  0  0  0  0  0  0  0  0  0  0  0
    3.0030    1.4574    0.8585 H   0  0  0  0  0  0  0  0  0  0  0  0
    2.1034    1.0048   -1.7292 H   0  0  0  0  0  0  0  0  0  0  0  0
    2.7265   -1.5844   -1.5004 H   0  0  0  0  0  0  0  0  0  0  0  0
    3.6348   -0.8797   -0.1388 H   0  0  0  0  0  0  0  0  0  0  0  0
    1.1839   -2.2363    0.6023 H   0  0  0  0  0  0  0  0  0  0  0  0
    1.7978   -0.2488    2.4016 H   0  0  0  0  0  0  0  0  0  0  0  0
    0.3792   -1.0524   -1.6798 H   0  0  0  0  0  0  0  0  0  0  0  0
  2  1  3  0  0  0  0
  3  2  1  0  0  0  0
  4  3  1  0  0  0  0
  5  4  1  0  0  0  0
  6  5  1  0  0  0  0
  7  6  1  0  0  0  0
  8  7  1  0  0  0  0
  9  8  1  0  0  0  0
 10  9  1  0  0  0  0
 11 10  1  0  0  0  0
 12 11  1  0  0  0  0
 12  8  1  0  0  0  0
 12  6  1  0  0  0  0
 13 11  1  0  0  0  0
 13  9  1  0  0  0  0
 13  5  1  0  0  0  0
  1 14  1  0  0  0  0
  3 15  1  0  0  0  0
  3 16  1  0  0  0  0
  4 17  1  0  0  0  0
  5 18  1  0  0  0  0
  6 19  1  0  0  0  0
  7 20  1  0  0  0  0
  7 21  1  0  0  0  0
  8 22  1  0  0  0  0
  9 23  1  0  0  0  0
 10 24  1  0  0  0  0
 10 25  1  0  0  0  0
 11 26  1  0  0  0  0
 12 27  1  0  0  0  0
 13 28  1  0  0  0  0
M  END
>  <energy>
39.138349185853187

$$$$
