CC=CCNC(=O)N(C)C1C2CC3C4CC5C32C1C1CC(C4O)[N+]15CC
                    3D

 58 63  0  0  0  0  0  0  0  0999 V2000
   -3.1894    2.6631   -2.2453 C   0  0  0  0  0  0  0  0  0  0  0  0
   -4.2138    1.6082   -1.9775 C   0  0  0  0  0  0  0  0  0  0  0  0
   -4.3091    0.8022   -0.9069 C   0  0  0  0  0  0  0  0  0  0  0  0
   -3.4482    0.7540    0.3137 C   0  0  0  0  0  0  0  0  0  0  0  0
   -2.5125   -0.3390    0.1402 N   0  0  0  0  0  0  0  0  0  0  0  0
   -2.0483   -1.0048    1.2434 C   0  0  0  0  0  0  0  0  0  0  0  0
   -2.2314   -0.6332    2.3997 O   0  0  0  0  0  0  0  0  0  0  0  0
   -1.3786   -2.1795    0.9277 N   0  0  0  0  0  0  0  0  0  0  0  0
   -1.5442   -3.2888    1.8763 C   0  0  0  0  0  0  0  0  0  0  0  0
   -0.2584   -2.3097   -0.0496 C   0  0  0  0  0  0  0  0  0  0  0  0
   -0.2591   -1.5750   -1.4156 C   0  0  0  0  0  0  0  0  0  0  0  0
    0.9748   -1.9908   -2.3379 C   0  0  0  0  0  0  0  0  0  0  0  0
    1.5123   -0.5424   -2.1043 C   0  0  0  0  0  0  0  0  0  0  0  0
    2.6305    0.4352   -1.6934 C   0  0  0  0  0  0  0  0  0  0  0  0
    1.7508    1.6110   -1.2251 C   0  0  0  0  0  0  0  0  0  0  0  0
    0.8037    0.8599   -0.2778 C   0  0  0  0  0  0  0  0  0  0  0  0
    0.6978   -0.5335   -0.8194 C   0  0  0  0  0  0  0  0  0  0  0  0
    1.0561   -1.5796    0.2740 C   0  0  0  0  0  0  0  0  0  0  0  0
    1.2270   -0.6819    1.5136 C   0  0  0  0  0  0  0  0  0  0  0  0
    2.7133   -0.7668    1.9448 C   0  0  0  0  0  0  0  0  0  0  0  0
    2.9749    0.3696    0.9184 C   0  0  0  0  0  0  0  0  0  0  0  0
    3.5485    0.0719   -0.5162 C   0  0  0  0  0  0  0  0  0  0  0  0
    3.9994   -1.2702   -0.6141 O   0  0  0  0  0  0  0  0  0  0  0  0
    1.4905    0.7208    1.0439 N   0  3  0  0  0  0  0  0  0  0  0  0
    1.3187    1.7686    2.1114 C   0  0  0  0  0  0  0  0  0  0  0  0
   -0.0782    2.3435    2.2290 C   0  0  0  0  0  0  0  0  0  0  0  0
   -2.7451    2.5012   -3.2329 H   0  0  0  0  0  0  0  0  0  0  0  0
   -3.6658    3.6457   -2.2632 H   0  0  0  0  0  0  0  0  0  0  0  0
   -2.3798    2.6788   -1.5084 H   0  0  0  0  0  0  0  0  0  0  0  0
   -4.9717    1.4942   -2.7569 H   0  0  0  0  0  0  0  0  0  0  0  0
   -5.1486    0.1039   -0.8968 H   0  0  0  0  0  0  0  0  0  0  0  0
   -4.0777    0.5742    1.1932 H   0  0  0  0  0  0  0  0  0  0  0  0
   -2.8886    1.6744    0.4944 H   0  0  0  0  0  0  0  0  0  0  0  0
   -2.7896   -1.0018   -0.5682 H   0  0  0  0  0  0  0  0  0  0  0  0
   -2.3584   -3.0881    2.5880 H   0  0  0  0  0  0  0  0  0  0  0  0
   -0.6155   -3.4528    2.4290 H   0  0  0  0  0  0  0  0  0  0  0  0
   -1.8148   -4.1945    1.3167 H   0  0  0  0  0  0  0  0  0  0  0  0
   -0.0830   -3.3817   -0.2128 H   0  0  0  0  0  0  0  0  0  0  0  0
   -1.1569   -1.2144   -1.9145 H   0  0  0  0  0  0  0  0  0  0  0  0
    0.7030   -2.2046   -3.3769 H   0  0  0  0  0  0  0  0  0  0  0  0
    1.6187   -2.8037   -1.9979 H   0  0  0  0  0  0  0  0  0  0  0  0
    1.0327    0.0181   -2.9365 H   0  0  0  0  0  0  0  0  0  0  0  0
    3.2374    0.7144   -2.5631 H   0  0  0  0  0  0  0  0  0  0  0  0
    2.3032    2.4201   -0.7386 H   0  0  0  0  0  0  0  0  0  0  0  0
    1.1839    2.0528   -2.0548 H   0  0  0  0  0  0  0  0  0  0  0  0
   -0.1690    1.3380   -0.1586 H   0  0  0  0  0  0  0  0  0  0  0  0
    1.9040   -2.2472    0.0926 H   0  0  0  0  0  0  0  0  0  0  0  0
    0.5010   -0.7827    2.3190 H   0  0  0  0  0  0  0  0  0  0  0  0
    2.8715   -0.4697    2.9896 H   0  0  0  0  0  0  0  0  0  0  0  0
    3.2290   -1.7194    1.8009 H   0  0  0  0  0  0  0  0  0  0  0  0
    3.6223    1.1429    1.3550 H   0  0  0  0  0  0  0  0  0  0  0  0
    4.4359    0.7188   -0.6070 H   0  0  0  0  0  0  0  0  0  0  0  0
    4.6851   -1.3146   -1.3076 H   0  0  0  0  0  0  0  0  0  0  0  0
    1.6162    1.3571    3.0801 H   0  0  0  0  0  0  0  0  0  0  0  0
    1.9974    2.5878    1.8565 H   0  0  0  0  0  0  0  0  0  0  0  0
   -0.4385    2.7812    1.2934 H   0  0  0  0  0  0  0  0  0  0  0  0
   -0.7957    1.5973    2.5747 H   0  0  0  0  0  0  0  0  0  0  0  0
   -0.0697    3.1612    2.9582 H   0  0  0  0  0  0  0  0  0  0  0  0
  2  1  1  0  0  0  0
  3  2  2  0  0  0  0
  4  3  1  0  0  0  0
  5  4  1  0  0  0  0
  6  5  1  0  0  0  0
  7  6  2  0  0  0  0
  8  6  1  0  0  0  0
  9  8  1  0  0  0  0
 10  8  1  0  0  0  0
 11 10  1  0  0  0  0
 12 11  1  0  0  0  0
 13 12  1  0  0  0  0
 14 13  1  0  0  0  0
 15 14  1  0  0  0  0
 16 15  1  0  0  0  0
 17 16  1  0  0  0  0
 17 13  1  0  0  0  0
 17 11  1  0  0  0  0
 18 17  1  0  0  0  0
 18 10  1  0  0  0  0
 19 18  1  0  0  0  0
 20 19  1  0  0  0  0
 21 20  1  0  0  0  0
 22 21  1  0  0  0  0
 22 14  1  0  0  0  0
 23 22  1  0  0  0  0
 24 21  1  0  0  0  0
 24 19  1  0  0  0  0
 24 16  1  0  0  0  0
 25 24  1  0  0  0  0
 26 25  1  0  0  0  0
  1 27  1  0  0  0  0
  1 28  1  0  0  0  0
  1 29  1  0  0  0  0
  2 30  1  0  0  0  0
  3 31  1  0  0  0  0
  4 32  1  0  0  0  0
  4 33  1  0  0  0  0
  5 34  1  0  0  0  0
  9 35  1  0  0  0  0
  9 36  1  0  0  0  0
  9 37  1  0  0  0  0
 10 38  1  0  0  0  0
 11 39  1  0  0  0  0
 12 40  1  0  0  0  0
 12 41  1  0  0  0  0
 13 42  1  0  0  0  0
 14 43  1  0  0  0  0
 15 44  1  0  0  0  0
 15 45  1  0  0  0  0
 16 46  1  0  0  0  0
 18 47  1  0  0  0  0
 19 48  1  0  0  0  0
 20 49  1  0  0  0  0
 20 50  1  0  0  0  0
 21 51  1  0  0  0  0
 22 52  1  0  0  0  0
 23 53  1  0  0  0  0
 25 54  1  0  0  0  0
 25 55  1  0  0  0  0
 26 56  1  0  0  0  0
 26 57  1  0  0  0  0
 26 58  1  0  0  0  0
M  CHG  1  24   1
M  END
>  <energy>
69.025353808959281

$$$$
