COC1C2C3OC1(O)C(O)C(C)(O)C31CCC(C)CC3(OC)COC1CC(C(=O)CC(C)C)C2(C=O)O3
                    3D

 79 83  0  0  0  0  0  0  0  0999 V2000
   -3.7273   -0.3535    3.3071 C   0  0  0  0  0  0  0  0  0  0  0  0
   -2.8230   -1.2421    2.6588 O   0  0  0  0  0  0  0  0  0  0  0  0
   -2.3535   -0.7490    1.3878 C   0  0  0  0  0  0  0  0  0  0  0  0
   -0.9657   -1.4397    1.1810 C   0  0  0  0  0  0  0  0  0  0  0  0
   -1.2408   -2.1184   -0.2541 C   0  0  0  0  0  0  0  0  0  0  0  0
   -2.6556   -2.4488   -0.2306 O   0  0  0  0  0  0  0  0  0  0  0  0
   -3.2525   -1.2307    0.1873 C   0  0  0  0  0  0  0  0  0  0  0  0
   -4.5891   -1.4742    0.5955 O   0  0  0  0  0  0  0  0  0  0  0  0
   -3.3070   -0.3477   -1.0976 C   0  0  0  0  0  0  0  0  0  0  0  0
   -3.3432    1.0404   -0.7794 O   0  0  0  0  0  0  0  0  0  0  0  0
   -2.2210   -0.7692   -2.1726 C   0  0  0  0  0  0  0  0  0  0  0  0
   -2.0370    0.3284   -3.2257 C   0  0  0  0  0  0  0  0  0  0  0  0
   -2.7832   -1.8884   -2.9078 O   0  0  0  0  0  0  0  0  0  0  0  0
   -0.8791   -1.2821   -1.5491 C   0  0  0  0  0  0  0  0  0  0  0  0
    0.0818   -2.1327   -2.6056 C   0  0  0  0  0  0  0  0  0  0  0  0
    1.7286   -1.8394   -2.8965 C   0  0  0  0  0  0  0  0  0  0  0  0
    2.9333   -1.0327   -2.0439 C   0  0  0  0  0  0  0  0  0  0  0  0
    4.1982   -1.0737   -2.9230 C   0  0  0  0  0  0  0  0  0  0  0  0
    3.4637   -1.3072   -0.4553 C   0  0  0  0  0  0  0  0  0  0  0  0
    2.4788   -1.8769    0.6760 C   0  0  0  0  0  0  0  0  0  0  0  0
    3.0479   -3.0373    1.2876 O   0  0  0  0  0  0  0  0  0  0  0  0
    4.0026   -2.6996    2.2867 C   0  0  0  0  0  0  0  0  0  0  0  0
    1.3642   -2.2582   -0.1665 C   0  0  0  0  0  0  0  0  0  0  0  0
    1.1154   -0.8956   -0.5605 O   0  0  0  0  0  0  0  0  0  0  0  0
    0.0749   -0.2167   -1.1783 C   0  0  0  0  0  0  0  0  0  0  0  0
   -0.2139    0.9818   -0.2885 C   0  0  0  0  0  0  0  0  0  0  0  0
    0.4639    0.9012    1.0850 C   0  0  0  0  0  0  0  0  0  0  0  0
   -0.0419    2.0582    1.9532 C   0  0  0  0  0  0  0  0  0  0  0  0
   -1.0744    1.9628    2.6193 O   0  0  0  0  0  0  0  0  0  0  0  0
    0.6921    3.3895    1.8595 C   0  0  0  0  0  0  0  0  0  0  0  0
   -0.0265    4.3440    0.8886 C   0  0  0  0  0  0  0  0  0  0  0  0
    0.8966    4.7690   -0.2548 C   0  0  0  0  0  0  0  0  0  0  0  0
   -0.5442    5.5816    1.6241 C   0  0  0  0  0  0  0  0  0  0  0  0
    0.3863   -0.5312    1.7020 C   0  0  0  0  0  0  0  0  0  0  0  0
    0.2277   -0.4119    3.2383 C   0  0  0  0  0  0  0  0  0  0  0  0
    1.1441   -0.2063    4.0347 O   0  0  0  0  0  0  0  0  0  0  0  0
    1.8526   -1.0372    1.7005 O   0  0  0  0  0  0  0  0  0  0  0  0
   -4.1127   -0.8578    4.1959 H   0  0  0  0  0  0  0  0  0  0  0  0
   -3.2028    0.5502    3.6307 H   0  0  0  0  0  0  0  0  0  0  0  0
   -4.5651   -0.0847    2.6592 H   0  0  0  0  0  0  0  0  0  0  0  0
   -2.3094    0.3356    1.4246 H   0  0  0  0  0  0  0  0  0  0  0  0
   -0.9387   -2.3073    1.8653 H   0  0  0  0  0  0  0  0  0  0  0  0
   -0.8315   -3.1288   -0.3329 H   0  0  0  0  0  0  0  0  0  0  0  0
   -4.7977   -2.3447    0.2188 H   0  0  0  0  0  0  0  0  0  0  0  0
   -4.2787   -0.5400   -1.5753 H   0  0  0  0  0  0  0  0  0  0  0  0
   -4.1319    1.1698   -0.2150 H   0  0  0  0  0  0  0  0  0  0  0  0
   -1.3666   -0.0039   -4.0258 H   0  0  0  0  0  0  0  0  0  0  0  0
   -1.6390    1.2549   -2.8056 H   0  0  0  0  0  0  0  0  0  0  0  0
   -2.9961    0.5554   -3.7071 H   0  0  0  0  0  0  0  0  0  0  0  0
   -2.9279   -2.6187   -2.2744 H   0  0  0  0  0  0  0  0  0  0  0  0
   -0.0068   -3.1999   -2.3618 H   0  0  0  0  0  0  0  0  0  0  0  0
   -0.3708   -2.0581   -3.6026 H   0  0  0  0  0  0  0  0  0  0  0  0
    1.6987   -1.2969   -3.8539 H   0  0  0  0  0  0  0  0  0  0  0  0
    2.1497   -2.8227   -3.1504 H   0  0  0  0  0  0  0  0  0  0  0  0
    2.6327    0.0242   -2.0567 H   0  0  0  0  0  0  0  0  0  0  0  0
    3.9833   -0.7028   -3.9302 H   0  0  0  0  0  0  0  0  0  0  0  0
    4.9836   -0.4428   -2.4972 H   0  0  0  0  0  0  0  0  0  0  0  0
    4.5854   -2.0930   -3.0085 H   0  0  0  0  0  0  0  0  0  0  0  0
    4.3018   -2.0121   -0.5455 H   0  0  0  0  0  0  0  0  0  0  0  0
    3.8863   -0.3577   -0.0994 H   0  0  0  0  0  0  0  0  0  0  0  0
    4.7529   -1.9986    1.9078 H   0  0  0  0  0  0  0  0  0  0  0  0
    4.5093   -3.6182    2.5963 H   0  0  0  0  0  0  0  0  0  0  0  0
    3.5027   -2.2723    3.1612 H   0  0  0  0  0  0  0  0  0  0  0  0
    1.6616   -2.9751   -0.9319 H   0  0  0  0  0  0  0  0  0  0  0  0
    0.7193   -2.7957    0.5209 H   0  0  0  0  0  0  0  0  0  0  0  0
    0.4520    0.2411   -2.1006 H   0  0  0  0  0  0  0  0  0  0  0  0
   -1.2628    1.2111   -0.2015 H   0  0  0  0  0  0  0  0  0  0  0  0
    0.1836    1.8768   -0.7872 H   0  0  0  0  0  0  0  0  0  0  0  0
    1.5309    1.1194    0.9290 H   0  0  0  0  0  0  0  0  0  0  0  0
    0.7482    3.7989    2.8750 H   0  0  0  0  0  0  0  0  0  0  0  0
    1.7278    3.2040    1.5580 H   0  0  0  0  0  0  0  0  0  0  0  0
   -0.8943    3.8405    0.4428 H   0  0  0  0  0  0  0  0  0  0  0  0
    1.7560    5.3394    0.1142 H   0  0  0  0  0  0  0  0  0  0  0  0
    0.3568    5.3965   -0.9717 H   0  0  0  0  0  0  0  0  0  0  0  0
    1.2777    3.8997   -0.7989 H   0  0  0  0  0  0  0  0  0  0  0  0
   -1.0925    6.2361    0.9390 H   0  0  0  0  0  0  0  0  0  0  0  0
   -1.2248    5.2972    2.4324 H   0  0  0  0  0  0  0  0  0  0  0  0
    0.2771    6.1628    2.0571 H   0  0  0  0  0  0  0  0  0  0  0  0
   -0.8009   -0.4380    3.6226 H   0  0  0  0  0  0  0  0  0  0  0  0
  2  1  1  0  0  0  0
  3  2  1  0  0  0  0
  4  3  1  0  0  0  0
  5  4  1  0  0  0  0
  6  5  1  0  0  0  0
  7  6  1  0  0  0  0
  7  3  1  0  0  0  0
  8  7  1  0  0  0  0
  9  7  1  0  0  0  0
 10  9  1  0  0  0  0
 11  9  1  0  0  0  0
 12 11  1  0  0  0  0
 13 11  1  0  0  0  0
 14 11  1  0  0  0  0
 14  5  1  0  0  0  0
 15 14  1  0  0  0  0
 16 15  1  0  0  0  0
 17 16  1  0  0  0  0
 18 17  1  0  0  0  0
 19 17  1  0  0  0  0
 20 19  1  0  0  0  0
 21 20  1  0  0  0  0
 22 21  1  0  0  0  0
 23 20  1  0  0  0  0
 24 23  1  0  0  0  0
 25 24  1  0  0  0  0
 25 14  1  0  0  0  0
 26 25  1  0  0  0  0
 27 26  1  0  0  0  0
 28 27  1  0  0  0  0
 29 28  2  0  0  0  0
 30 28  1  0  0  0  0
 31 30  1  0  0  0  0
 32 31  1  0  0  0  0
 33 31  1  0  0  0  0
 34 27  1  0  0  0  0
 34  4  1  0  0  0  0
 35 34  1  0  0  0  0
 36 35  2  0  0  0  0
 37 34  1  0  0  0  0
 37 20  1  0  0  0  0
  1 38  1  0  0  0  0
  1 39  1  0  0  0  0
  1 40  1  0  0  0  0
  3 41  1  0  0  0  0
  4 42  1  0  0  0  0
  5 43  1  0  0  0  0
  8 44  1  0  0  0  0
  9 45  1  0  0  0  0
 10 46  1  0  0  0  0
 12 47  1  0  0  0  0
 12 48  1  0  0  0  0
 12 49  1  0  0  0  0
 13 50  1  0  0  0  0
 15 51  1  0  0  0  0
 15 52  1  0  0  0  0
 16 53  1  0  0  0  0
 16 54  1  0  0  0  0
 17 55  1  0  0  0  0
 18 56  1  0  0  0  0
 18 57  1  0  0  0  0
 18 58  1  0  0  0  0
 19 59  1  0  0  0  0
 19 60  1  0  0  0  0
 22 61  1  0  0  0  0
 22 62  1  0  0  0  0
 22 63  1  0  0  0  0
 23 64  1  0  0  0  0
 23 65  1  0  0  0  0
 25 66  1  0  0  0  0
 26 67  1  0  0  0  0
 26 68  1  0  0  0  0
 27 69  1  0  0  0  0
 30 70  1  0  0  0  0
 30 71  1  0  0  0  0
 31 72  1  0  0  0  0
 32 73  1  0  0  0  0
 32 74  1  0  0  0  0
 32 75  1  0  0  0  0
 33 76  1  0  0  0  0
 33 77  1  0  0  0  0
 33 78  1  0  0  0  0
 35 79  1  0  0  0  0
M  END
>  <energy>
426.45096171428838

$$$$
