CC1(C)C2C3=C(Cl)C(CCl)(C(C(F)CC4(C)C(Br)COC34)C3NC32)C1Cl
                    3D

 50 54  0  0  0  0  0  0  0  0999 V2000
    1.0812   -3.3816   -0.2246 C   0  0  0  0  0  0  0  0  0  0  0  0
    1.7406   -1.9804   -0.4839 C   0  0  0  0  0  0  0  0  0  0  0  0
    2.8686   -2.3330   -1.4903 C   0  0  0  0  0  0  0  0  0  0  0  0
    0.6693   -1.0018   -1.1089 C   0  0  0  0  0  0  0  0  0  0  0  0
   -0.5280   -0.9013   -0.0677 C   0  0  0  0  0  0  0  0  0  0  0  0
   -0.1814   -0.9421    1.2471 C   0  0  0  0  0  0  0  0  0  0  0  0
   -1.3086   -1.1236    2.5303 Cl  0  0  0  0  0  0  0  0  0  0  0  0
    1.2018   -0.2946    1.5230 C   0  0  0  0  0  0  0  0  0  0  0  0
    1.5075   -0.0742    3.0345 C   0  0  0  0  0  0  0  0  0  0  0  0
    2.8201    1.0891    3.3559 Cl  0  0  0  0  0  0  0  0  0  0  0  0
    1.0265    1.1497    0.8005 C   0  0  0  0  0  0  0  0  0  0  0  0
   -0.0115    2.1503    1.3785 C   0  0  0  0  0  0  0  0  0  0  0  0
    0.6166    3.3426    1.5776 F   0  0  0  0  0  0  0  0  0  0  0  0
   -1.1971    2.4064    0.3645 C   0  0  0  0  0  0  0  0  0  0  0  0
   -2.2282    1.2675   -0.1294 C   0  0  0  0  0  0  0  0  0  0  0  0
   -3.3730    1.2480    0.9184 C   0  0  0  0  0  0  0  0  0  0  0  0
   -2.7112    1.6966   -1.5455 C   0  0  0  0  0  0  0  0  0  0  0  0
   -4.1250    3.0093   -1.6334 Br  0  0  0  0  0  0  0  0  0  0  0  0
   -3.0985    0.4201   -2.2471 C   0  0  0  0  0  0  0  0  0  0  0  0
   -2.0778   -0.5003   -1.8562 O   0  0  0  0  0  0  0  0  0  0  0  0
   -1.8618   -0.2924   -0.4494 C   0  0  0  0  0  0  0  0  0  0  0  0
    1.6748    1.4621   -0.5184 C   0  0  0  0  0  0  0  0  0  0  0  0
    2.6646    0.7634   -1.2750 N   0  0  0  0  0  0  0  0  0  0  0  0
    1.3050    0.3540   -1.5723 C   0  0  0  0  0  0  0  0  0  0  0  0
    2.1989   -1.3796    0.9170 C   0  0  0  0  0  0  0  0  0  0  0  0
    3.9212   -0.8838    0.9599 Cl  0  0  0  0  0  0  0  0  0  0  0  0
    0.3008   -3.3713    0.5402 H   0  0  0  0  0  0  0  0  0  0  0  0
    0.6324   -3.7781   -1.1431 H   0  0  0  0  0  0  0  0  0  0  0  0
    1.8321   -4.1053    0.1159 H   0  0  0  0  0  0  0  0  0  0  0  0
    2.4450   -2.7887   -2.3940 H   0  0  0  0  0  0  0  0  0  0  0  0
    3.5655   -3.0616   -1.0586 H   0  0  0  0  0  0  0  0  0  0  0  0
    3.4673   -1.4896   -1.8320 H   0  0  0  0  0  0  0  0  0  0  0  0
    0.2737   -1.4878   -2.0108 H   0  0  0  0  0  0  0  0  0  0  0  0
    1.7744   -1.0148    3.5283 H   0  0  0  0  0  0  0  0  0  0  0  0
    0.6517    0.3329    3.5771 H   0  0  0  0  0  0  0  0  0  0  0  0
    0.2072    0.9009    0.1883 H   0  0  0  0  0  0  0  0  0  0  0  0
   -0.4258    1.8342    2.3383 H   0  0  0  0  0  0  0  0  0  0  0  0
   -0.7321    2.8624   -0.5202 H   0  0  0  0  0  0  0  0  0  0  0  0
   -1.7809    3.2386    0.7832 H   0  0  0  0  0  0  0  0  0  0  0  0
   -3.0145    0.8964    1.8873 H   0  0  0  0  0  0  0  0  0  0  0  0
   -4.2001    0.6003    0.6078 H   0  0  0  0  0  0  0  0  0  0  0  0
   -3.7892    2.2444    1.1004 H   0  0  0  0  0  0  0  0  0  0  0  0
   -1.8782    2.1342   -2.1091 H   0  0  0  0  0  0  0  0  0  0  0  0
   -4.0731    0.0298   -1.9316 H   0  0  0  0  0  0  0  0  0  0  0  0
   -3.1003    0.5183   -3.3370 H   0  0  0  0  0  0  0  0  0  0  0  0
   -2.6303   -0.9234    0.0188 H   0  0  0  0  0  0  0  0  0  0  0  0
    1.5646    2.5053   -0.7988 H   0  0  0  0  0  0  0  0  0  0  0  0
    3.2312    0.1745   -0.6660 H   0  0  0  0  0  0  0  0  0  0  0  0
    0.8849    0.6998   -2.5115 H   0  0  0  0  0  0  0  0  0  0  0  0
    2.1991   -2.2217    1.6220 H   0  0  0  0  0  0  0  0  0  0  0  0
  2  1  1  0  0  0  0
  3  2  1  0  0  0  0
  4  2  1  0  0  0  0
  5  4  1  0  0  0  0
  6  5  2  0  0  0  0
  7  6  1  0  0  0  0
  8  6  1  0  0  0  0
  9  8  1  0  0  0  0
 10  9  1  0  0  0  0
 11  8  1  0  0  0  0
 12 11  1  0  0  0  0
 13 12  1  0  0  0  0
 14 12  1  0  0  0  0
 15 14  1  0  0  0  0
 16 15  1  0  0  0  0
 17 15  1  0  0  0  0
 18 17  1  0  0  0  0
 19 17  1  0  0  0  0
 20 19  1  0  0  0  0
 21 20  1  0  0  0  0
 21  5  1  0  0  0  0
 21 15  1  0  0  0  0
 22 11  1  0  0  0  0
 23 22  1  0  0  0  0
 24 23  1  0  0  0  0
 24 22  1  0  0  0  0
 24  4  1  0  0  0  0
 25  8  1  0  0  0  0
 25  2  1  0  0  0  0
 26 25  1  0  0  0  0
  1 27  1  0  0  0  0
  1 28  1  0  0  0  0
  1 29  1  0  0  0  0
  3 30  1  0  0  0  0
  3 31  1  0  0  0  0
  3 32  1  0  0  0  0
  4 33  1  0  0  0  0
  9 34  1  0  0  0  0
  9 35  1  0  0  0  0
 11 36  1  0  0  0  0
 12 37  1  0  0  0  0
 14 38  1  0  0  0  0
 14 39  1  0  0  0  0
 16 40  1  0  0  0  0
 16 41  1  0  0  0  0
 16 42  1  0  0  0  0
 17 43  1  0  0  0  0
 19 44  1  0  0  0  0
 19 45  1  0  0  0  0
 21 46  1  0  0  0  0
 22 47  1  0  0  0  0
 23 48  1  0  0  0  0
 24 49  1  0  0  0  0
 25 50  1  0  0  0  0
M  END
>  <energy>
237.96684236487619

$$$$
