CC(F)(F)C(O)(CCCC1CCCCC1)CNC(=O)CCNC(=O)NC(C)(C#N)C12CC3CC(C1)C32
                    3D

 78 81  0  0  0  0  0  0  0  0999 V2000
   -2.7541   -0.7868    4.0721 C   0  0  0  0  0  0  0  0  0  0  0  0
   -3.3966   -1.4590    2.8739 C   0  0  0  0  0  0  0  0  0  0  0  0
   -4.5644   -0.8041    2.6087 F   0  0  0  0  0  0  0  0  0  0  0  0
   -3.7798   -2.7109    3.2576 F   0  0  0  0  0  0  0  0  0  0  0  0
   -2.5573   -1.5696    1.5595 C   0  0  0  0  0  0  0  0  0  0  0  0
   -1.3465   -2.3458    1.7616 O   0  0  0  0  0  0  0  0  0  0  0  0
   -2.0325   -0.1940    1.0644 C   0  0  0  0  0  0  0  0  0  0  0  0
   -3.0721    0.8887    0.7464 C   0  0  0  0  0  0  0  0  0  0  0  0
   -2.4334    2.2417    0.3948 C   0  0  0  0  0  0  0  0  0  0  0  0
   -1.8292    2.3058   -1.0217 C   0  0  0  0  0  0  0  0  0  0  0  0
   -2.9139    2.6557   -2.0669 C   0  0  0  0  0  0  0  0  0  0  0  0
   -2.3188    3.2961   -3.3172 C   0  0  0  0  0  0  0  0  0  0  0  0
   -1.5724    4.5946   -3.0099 C   0  0  0  0  0  0  0  0  0  0  0  0
   -1.0152    4.6594   -1.5866 C   0  0  0  0  0  0  0  0  0  0  0  0
   -0.6300    3.2765   -1.0823 C   0  0  0  0  0  0  0  0  0  0  0  0
   -3.4355   -2.3108    0.5015 C   0  0  0  0  0  0  0  0  0  0  0  0
   -2.7839   -2.4492   -0.7963 N   0  0  0  0  0  0  0  0  0  0  0  0
   -2.0751   -3.5834   -1.1454 C   0  0  0  0  0  0  0  0  0  0  0  0
   -1.9344   -4.5387   -0.3938 O   0  0  0  0  0  0  0  0  0  0  0  0
   -1.4022   -3.4981   -2.5040 C   0  0  0  0  0  0  0  0  0  0  0  0
    0.1109   -3.4894   -2.3471 C   0  0  0  0  0  0  0  0  0  0  0  0
    0.5562   -2.4904   -1.3847 N   0  0  0  0  0  0  0  0  0  0  0  0
    1.9106   -2.3540   -1.1763 C   0  0  0  0  0  0  0  0  0  0  0  0
    2.7606   -2.7471   -1.9639 O   0  0  0  0  0  0  0  0  0  0  0  0
    2.1441   -1.7833    0.0411 N   0  0  0  0  0  0  0  0  0  0  0  0
    3.4078   -1.7807    0.7894 C   0  0  0  0  0  0  0  0  0  0  0  0
    4.4937   -2.7184    0.2354 C   0  0  0  0  0  0  0  0  0  0  0  0
    3.0868   -2.2021    2.1852 C   0  0  0  0  0  0  0  0  0  0  0  0
    2.8117   -2.5191    3.2696 N   0  0  0  0  0  0  0  0  0  0  0  0
    3.9225   -0.3445    0.7645 C   0  0  0  0  0  0  0  0  0  0  0  0
    4.1358    0.4283   -0.5862 C   0  0  0  0  0  0  0  0  0  0  0  0
    3.4946    1.6772    0.0429 C   0  0  0  0  0  0  0  0  0  0  0  0
    4.4417    2.4646    0.9686 C   0  0  0  0  0  0  0  0  0  0  0  0
    4.2355    1.3935    2.0534 C   0  0  0  0  0  0  0  0  0  0  0  0
    5.0229    0.0970    1.7937 C   0  0  0  0  0  0  0  0  0  0  0  0
    3.0649    0.8392    1.2469 C   0  0  0  0  0  0  0  0  0  0  0  0
   -1.8690   -1.3146    4.4322 H   0  0  0  0  0  0  0  0  0  0  0  0
   -2.5032    0.2519    3.8632 H   0  0  0  0  0  0  0  0  0  0  0  0
   -3.4789   -0.7579    4.8914 H   0  0  0  0  0  0  0  0  0  0  0  0
   -1.5749   -3.2970    1.6669 H   0  0  0  0  0  0  0  0  0  0  0  0
   -1.3308    0.1888    1.8180 H   0  0  0  0  0  0  0  0  0  0  0  0
   -1.3974   -0.3611    0.1889 H   0  0  0  0  0  0  0  0  0  0  0  0
   -3.7244    0.5624   -0.0701 H   0  0  0  0  0  0  0  0  0  0  0  0
   -3.6971    1.0530    1.6274 H   0  0  0  0  0  0  0  0  0  0  0  0
   -3.1977    3.0212    0.4994 H   0  0  0  0  0  0  0  0  0  0  0  0
   -1.6740    2.4715    1.1514 H   0  0  0  0  0  0  0  0  0  0  0  0
   -1.4246    1.3182   -1.2821 H   0  0  0  0  0  0  0  0  0  0  0  0
   -3.4580    1.7445   -2.3428 H   0  0  0  0  0  0  0  0  0  0  0  0
   -3.6552    3.3471   -1.6464 H   0  0  0  0  0  0  0  0  0  0  0  0
   -3.1041    3.4921   -4.0553 H   0  0  0  0  0  0  0  0  0  0  0  0
   -1.6288    2.5839   -3.7889 H   0  0  0  0  0  0  0  0  0  0  0  0
   -2.2326    5.4538   -3.1708 H   0  0  0  0  0  0  0  0  0  0  0  0
   -0.7500    4.7036   -3.7291 H   0  0  0  0  0  0  0  0  0  0  0  0
   -0.1431    5.3262   -1.5684 H   0  0  0  0  0  0  0  0  0  0  0  0
   -1.7620    5.0972   -0.9154 H   0  0  0  0  0  0  0  0  0  0  0  0
   -0.1319    3.3595   -0.1096 H   0  0  0  0  0  0  0  0  0  0  0  0
    0.1289    2.8599   -1.7603 H   0  0  0  0  0  0  0  0  0  0  0  0
   -3.6610   -3.3265    0.8617 H   0  0  0  0  0  0  0  0  0  0  0  0
   -4.3906   -1.8002    0.3290 H   0  0  0  0  0  0  0  0  0  0  0  0
   -2.6770   -1.6188   -1.3677 H   0  0  0  0  0  0  0  0  0  0  0  0
   -1.7127   -4.3659   -3.0947 H   0  0  0  0  0  0  0  0  0  0  0  0
   -1.7251   -2.5974   -3.0369 H   0  0  0  0  0  0  0  0  0  0  0  0
    0.6119   -3.3133   -3.3057 H   0  0  0  0  0  0  0  0  0  0  0  0
    0.4502   -4.4669   -1.9909 H   0  0  0  0  0  0  0  0  0  0  0  0
    0.0447   -2.4952   -0.5132 H   0  0  0  0  0  0  0  0  0  0  0  0
    1.3371   -1.4142    0.5258 H   0  0  0  0  0  0  0  0  0  0  0  0
    4.8433   -2.3986   -0.7541 H   0  0  0  0  0  0  0  0  0  0  0  0
    5.3788   -2.7341    0.8848 H   0  0  0  0  0  0  0  0  0  0  0  0
    4.1221   -3.7485    0.1564 H   0  0  0  0  0  0  0  0  0  0  0  0
    5.1782    0.5362   -0.9083 H   0  0  0  0  0  0  0  0  0  0  0  0
    3.5678    0.0388   -1.4388 H   0  0  0  0  0  0  0  0  0  0  0  0
    2.7407    2.2223   -0.5276 H   0  0  0  0  0  0  0  0  0  0  0  0
    4.0392    3.4446    1.2542 H   0  0  0  0  0  0  0  0  0  0  0  0
    5.4671    2.6020    0.6098 H   0  0  0  0  0  0  0  0  0  0  0  0
    4.0657    1.7128    3.0786 H   0  0  0  0  0  0  0  0  0  0  0  0
    5.1007   -0.5253    2.6932 H   0  0  0  0  0  0  0  0  0  0  0  0
    6.0343    0.2196    1.3883 H   0  0  0  0  0  0  0  0  0  0  0  0
    2.0405    0.7854    1.6079 H   0  0  0  0  0  0  0  0  0  0  0  0
  2  1  1  0  0  0  0
  3  2  1  0  0  0  0
  4  2  1  0  0  0  0
  5  2  1  0  0  0  0
  6  5  1  0  0  0  0
  7  5  1  0  0  0  0
  8  7  1  0  0  0  0
  9  8  1  0  0  0  0
 10  9  1  0  0  0  0
 11 10  1  0  0  0  0
 12 11  1  0  0  0  0
 13 12  1  0  0  0  0
 14 13  1  0  0  0  0
 15 14  1  0  0  0  0
 15 10  1  0  0  0  0
 16  5  1  0  0  0  0
 17 16  1  0  0  0  0
 18 17  1  0  0  0  0
 19 18  2  0  0  0  0
 20 18  1  0  0  0  0
 21 20  1  0  0  0  0
 22 21  1  0  0  0  0
 23 22  1  0  0  0  0
 24 23  2  0  0  0  0
 25 23  1  0  0  0  0
 26 25  1  0  0  0  0
 27 26  1  0  0  0  0
 28 26  1  0  0  0  0
 29 28  3  0  0  0  0
 30 26  1  0  0  0  0
 31 30  1  0  0  0  0
 32 31  1  0  0  0  0
 33 32  1  0  0  0  0
 34 33  1  0  0  0  0
 35 34  1  0  0  0  0
 35 30  1  0  0  0  0
 36 34  1  0  0  0  0
 36 32  1  0  0  0  0
 36 30  1  0  0  0  0
  1 37  1  0  0  0  0
  1 38  1  0  0  0  0
  1 39  1  0  0  0  0
  6 40  1  0  0  0  0
  7 41  1  0  0  0  0
  7 42  1  0  0  0  0
  8 43  1  0  0  0  0
  8 44  1  0  0  0  0
  9 45  1  0  0  0  0
  9 46  1  0  0  0  0
 10 47  1  0  0  0  0
 11 48  1  0  0  0  0
 11 49  1  0  0  0  0
 12 50  1  0  0  0  0
 12 51  1  0  0  0  0
 13 52  1  0  0  0  0
 13 53  1  0  0  0  0
 14 54  1  0  0  0  0
 14 55  1  0  0  0  0
 15 56  1  0  0  0  0
 15 57  1  0  0  0  0
 16 58  1  0  0  0  0
 16 59  1  0  0  0  0
 17 60  1  0  0  0  0
 20 61  1  0  0  0  0
 20 62  1  0  0  0  0
 21 63  1  0  0  0  0
 21 64  1  0  0  0  0
 22 65  1  0  0  0  0
 25 66  1  0  0  0  0
 27 67  1  0  0  0  0
 27 68  1  0  0  0  0
 27 69  1  0  0  0  0
 31 70  1  0  0  0  0
 31 71  1  0  0  0  0
 32 72  1  0  0  0  0
 33 73  1  0  0  0  0
 33 74  1  0  0  0  0
 34 75  1  0  0  0  0
 35 76  1  0  0  0  0
 35 77  1  0  0  0  0
 36 78  1  0  0  0  0
M  END
>  <energy>
8.3475860105211837

$$$$
