OCC1C2C3CC4C3C(O)C1(O)C42
                    3D

 27 30  0  0  0  0  0  0  0  0999 V2000
   -2.7952    1.1167    0.9620 O   0  0  0  0  0  0  0  0  0  0  0  0
   -2.2282   -0.1823    0.8344 C   0  0  0  0  0  0  0  0  0  0  0  0
   -1.4312   -0.2481   -0.4545 C   0  0  0  0  0  0  0  0  0  0  0  0
   -0.3167   -1.3013   -0.5475 C   0  0  0  0  0  0  0  0  0  0  0  0
    0.7213   -1.2785    0.6268 C   0  0  0  0  0  0  0  0  0  0  0  0
    2.0367   -1.7206   -0.0964 C   0  0  0  0  0  0  0  0  0  0  0  0
    1.8553   -0.3438   -0.8048 C   0  0  0  0  0  0  0  0  0  0  0  0
    1.3805    0.1720    0.5888 C   0  0  0  0  0  0  0  0  0  0  0  0
    0.5360    1.3930    0.2845 C   0  0  0  0  0  0  0  0  0  0  0  0
   -0.2216    1.8086    1.4128 O   0  0  0  0  0  0  0  0  0  0  0  0
   -0.3474    0.8243   -0.8309 C   0  0  0  0  0  0  0  0  0  0  0  0
   -0.8071    1.8717   -1.7088 O   0  0  0  0  0  0  0  0  0  0  0  0
    0.4561   -0.3435   -1.5039 C   0  0  0  0  0  0  0  0  0  0  0  0
   -2.0541    1.6813    1.2733 H   0  0  0  0  0  0  0  0  0  0  0  0
   -3.0439   -0.9121    0.8180 H   0  0  0  0  0  0  0  0  0  0  0  0
   -1.6265   -0.3851    1.7252 H   0  0  0  0  0  0  0  0  0  0  0  0
   -2.1510   -0.3604   -1.2823 H   0  0  0  0  0  0  0  0  0  0  0  0
   -0.5931   -2.2850   -0.9331 H   0  0  0  0  0  0  0  0  0  0  0  0
    0.4658   -1.7338    1.5815 H   0  0  0  0  0  0  0  0  0  0  0  0
    2.9218   -1.8066    0.5442 H   0  0  0  0  0  0  0  0  0  0  0  0
    1.9755   -2.6076   -0.7334 H   0  0  0  0  0  0  0  0  0  0  0  0
    2.6978    0.1467   -1.2890 H   0  0  0  0  0  0  0  0  0  0  0  0
    2.1726    0.3427    1.3276 H   0  0  0  0  0  0  0  0  0  0  0  0
    1.1504    2.2291   -0.0683 H   0  0  0  0  0  0  0  0  0  0  0  0
    0.4187    2.1508    2.0644 H   0  0  0  0  0  0  0  0  0  0  0  0
   -1.5384    2.2885   -1.2147 H   0  0  0  0  0  0  0  0  0  0  0  0
    0.3658   -0.5167   -2.5758 H   0  0  0  0  0  0  0  0  0  0  0  0
  2  1  1  0  0  0  0
  3  2  1  0  0  0  0
  4  3  1  0  0  0  0
  5  4  1  0  0  0  0
  6  5  1  0  0  0  0
  7  6  1  0  0  0  0
  8  7  1  0  0  0  0
  8  5  1  0  0  0  0
  9  8  1  0  0  0  0
 10  9  1  0  0  0  0
 11  9  1  0  0  0  0
 11  3  1  0  0  0  0
 12 11  1  0  0  0  0
 13 11  1  0  0  0  0
 13  7  1  0  0  0  0
 13  4  1  0  0  0  0
  1 14  1  0  0  0  0
  2 15  1  0  0  0  0
  2 16  1  0  0  0  0
  3 17  1  0  0  0  0
  4 18  1  0  0  0  0
  5 19  1  0  0  0  0
  6 20  1  0  0  0  0
  6 21  1  0  0  0  0
  7 22  1  0  0  0  0
  8 23  1  0  0  0  0
  9 24  1  0  0  0  0
 10 25  1  0  0  0  0
 12 26  1  0  0  0  0
 13 27  1  0  0  0  0
M  END
>  <energy>
56.082498001487224

$$$$
