COC(=O)C(C)C(C=O)C(O)C1CC2C(=CCC3C4CCC4C23)C2(O)CC(=O)CC=C12
                    3D

 63 67  0  0  0  0  0  0  0  0999 V2000
    1.5201   -0.8136   -3.5948 C   0  0  0  0  0  0  0  0  0  0  0  0
    1.4176   -1.5450   -2.3704 O   0  0  0  0  0  0  0  0  0  0  0  0
    2.5262   -2.2594   -2.0430 C   0  0  0  0  0  0  0  0  0  0  0  0
    3.5674   -2.2583   -2.6824 O   0  0  0  0  0  0  0  0  0  0  0  0
    2.3260   -3.0465   -0.7607 C   0  0  0  0  0  0  0  0  0  0  0  0
    0.9604   -3.7351   -0.7116 C   0  0  0  0  0  0  0  0  0  0  0  0
    2.7319   -2.1992    0.4732 C   0  0  0  0  0  0  0  0  0  0  0  0
    3.7025   -3.0517    1.2719 C   0  0  0  0  0  0  0  0  0  0  0  0
    4.8774   -3.2113    0.9522 O   0  0  0  0  0  0  0  0  0  0  0  0
    1.6034   -1.7287    1.4190 C   0  0  0  0  0  0  0  0  0  0  0  0
    2.1947   -1.1804    2.6121 O   0  0  0  0  0  0  0  0  0  0  0  0
    0.5824   -0.7040    0.8349 C   0  0  0  0  0  0  0  0  0  0  0  0
   -0.7549   -0.8439    1.6147 C   0  0  0  0  0  0  0  0  0  0  0  0
   -1.7022    0.3648    1.6125 C   0  0  0  0  0  0  0  0  0  0  0  0
   -1.0335    1.7281    1.5355 C   0  0  0  0  0  0  0  0  0  0  0  0
   -1.8023    2.8039    1.2806 C   0  0  0  0  0  0  0  0  0  0  0  0
   -3.2888    2.7316    1.0686 C   0  0  0  0  0  0  0  0  0  0  0  0
   -3.6971    1.4458    0.3482 C   0  0  0  0  0  0  0  0  0  0  0  0
   -3.4377    1.4265   -1.1695 C   0  0  0  0  0  0  0  0  0  0  0  0
   -4.2665    0.3733   -1.9207 C   0  0  0  0  0  0  0  0  0  0  0  0
   -3.0287   -0.5413   -1.9604 C   0  0  0  0  0  0  0  0  0  0  0  0
   -2.3239    0.3911   -0.9704 C   0  0  0  0  0  0  0  0  0  0  0  0
   -2.7548    0.2171    0.5059 C   0  0  0  0  0  0  0  0  0  0  0  0
    0.4792    1.7380    1.7237 C   0  0  0  0  0  0  0  0  0  0  0  0
    0.7492    1.2269    3.0384 O   0  0  0  0  0  0  0  0  0  0  0  0
    1.1654    3.1176    1.6397 C   0  0  0  0  0  0  0  0  0  0  0  0
    1.3768    3.4863    0.1973 C   0  0  0  0  0  0  0  0  0  0  0  0
    0.9329    4.5273   -0.2791 O   0  0  0  0  0  0  0  0  0  0  0  0
    2.2494    2.5397   -0.5974 C   0  0  0  0  0  0  0  0  0  0  0  0
    1.8909    1.1245   -0.2642 C   0  0  0  0  0  0  0  0  0  0  0  0
    1.0769    0.7386    0.7390 C   0  0  0  0  0  0  0  0  0  0  0  0
    0.7420   -0.0457   -3.5941 H   0  0  0  0  0  0  0  0  0  0  0  0
    2.4911   -0.3159   -3.7004 H   0  0  0  0  0  0  0  0  0  0  0  0
    1.3428   -1.4979   -4.4275 H   0  0  0  0  0  0  0  0  0  0  0  0
    3.0341   -3.8811   -0.8682 H   0  0  0  0  0  0  0  0  0  0  0  0
    0.8646   -4.3649    0.1774 H   0  0  0  0  0  0  0  0  0  0  0  0
    0.1197   -3.0389   -0.7261 H   0  0  0  0  0  0  0  0  0  0  0  0
    0.8307   -4.3815   -1.5867 H   0  0  0  0  0  0  0  0  0  0  0  0
    3.3263   -1.3304    0.1716 H   0  0  0  0  0  0  0  0  0  0  0  0
    3.2808   -3.6247    2.1109 H   0  0  0  0  0  0  0  0  0  0  0  0
    1.0579   -2.6175    1.7564 H   0  0  0  0  0  0  0  0  0  0  0  0
    1.4823   -0.7577    3.1301 H   0  0  0  0  0  0  0  0  0  0  0  0
    0.3388   -0.9979   -0.1879 H   0  0  0  0  0  0  0  0  0  0  0  0
   -1.2797   -1.7297    1.2296 H   0  0  0  0  0  0  0  0  0  0  0  0
   -0.5498   -1.0865    2.6656 H   0  0  0  0  0  0  0  0  0  0  0  0
   -2.2405    0.3353    2.5702 H   0  0  0  0  0  0  0  0  0  0  0  0
   -1.3887    3.8094    1.2212 H   0  0  0  0  0  0  0  0  0  0  0  0
   -3.7771    2.7927    2.0479 H   0  0  0  0  0  0  0  0  0  0  0  0
   -3.6266    3.6002    0.4911 H   0  0  0  0  0  0  0  0  0  0  0  0
   -4.7439    1.2224    0.5965 H   0  0  0  0  0  0  0  0  0  0  0  0
   -3.1688    2.3465   -1.6930 H   0  0  0  0  0  0  0  0  0  0  0  0
   -5.1117   -0.0448   -1.3629 H   0  0  0  0  0  0  0  0  0  0  0  0
   -4.6289    0.6975   -2.9000 H   0  0  0  0  0  0  0  0  0  0  0  0
   -2.5407   -0.5745   -2.9419 H   0  0  0  0  0  0  0  0  0  0  0  0
   -3.1888   -1.5683   -1.6155 H   0  0  0  0  0  0  0  0  0  0  0  0
   -1.3104    0.7204   -1.1996 H   0  0  0  0  0  0  0  0  0  0  0  0
   -3.3269   -0.7108    0.6647 H   0  0  0  0  0  0  0  0  0  0  0  0
    1.7125    1.3127    3.1667 H   0  0  0  0  0  0  0  0  0  0  0  0
    0.6073    3.9065    2.1521 H   0  0  0  0  0  0  0  0  0  0  0  0
    2.1560    3.1168    2.1155 H   0  0  0  0  0  0  0  0  0  0  0  0
    3.3024    2.7396   -0.3777 H   0  0  0  0  0  0  0  0  0  0  0  0
    2.0721    2.7121   -1.6648 H   0  0  0  0  0  0  0  0  0  0  0  0
    2.2808    0.3937   -0.9636 H   0  0  0  0  0  0  0  0  0  0  0  0
  2  1  1  0  0  0  0
  3  2  1  0  0  0  0
  4  3  2  0  0  0  0
  5  3  1  0  0  0  0
  6  5  1  0  0  0  0
  7  5  1  0  0  0  0
  8  7  1  0  0  0  0
  9  8  2  0  0  0  0
 10  7  1  0  0  0  0
 11 10  1  0  0  0  0
 12 10  1  0  0  0  0
 13 12  1  0  0  0  0
 14 13  1  0  0  0  0
 15 14  1  0  0  0  0
 16 15  2  0  0  0  0
 17 16  1  0  0  0  0
 18 17  1  0  0  0  0
 19 18  1  0  0  0  0
 20 19  1  0  0  0  0
 21 20  1  0  0  0  0
 22 21  1  0  0  0  0
 22 19  1  0  0  0  0
 23 22  1  0  0  0  0
 23 14  1  0  0  0  0
 23 18  1  0  0  0  0
 24 15  1  0  0  0  0
 25 24  1  0  0  0  0
 26 24  1  0  0  0  0
 27 26  1  0  0  0  0
 28 27  2  0  0  0  0
 29 27  1  0  0  0  0
 30 29  1  0  0  0  0
 31 30  2  0  0  0  0
 31 12  1  0  0  0  0
 31 24  1  0  0  0  0
  1 32  1  0  0  0  0
  1 33  1  0  0  0  0
  1 34  1  0  0  0  0
  5 35  1  0  0  0  0
  6 36  1  0  0  0  0
  6 37  1  0  0  0  0
  6 38  1  0  0  0  0
  7 39  1  0  0  0  0
  8 40  1  0  0  0  0
 10 41  1  0  0  0  0
 11 42  1  0  0  0  0
 12 43  1  0  0  0  0
 13 44  1  0  0  0  0
 13 45  1  0  0  0  0
 14 46  1  0  0  0  0
 16 47  1  0  0  0  0
 17 48  1  0  0  0  0
 17 49  1  0  0  0  0
 18 50  1  0  0  0  0
 19 51  1  0  0  0  0
 20 52  1  0  0  0  0
 20 53  1  0  0  0  0
 21 54  1  0  0  0  0
 21 55  1  0  0  0  0
 22 56  1  0  0  0  0
 23 57  1  0  0  0  0
 25 58  1  0  0  0  0
 26 59  1  0  0  0  0
 26 60  1  0  0  0  0
 29 61  1  0  0  0  0
 29 62  1  0  0  0  0
 30 63  1  0  0  0  0
M  END
>  <energy>
57.284205876914939

$$$$
