CCOC1C=C2NC(=O)C(C3=CCC(OCCCN)C(CN=CN=C(N)N)C23O)C1C
                    3D

 65 67  0  0  0  0  0  0  0  0999 V2000
   -1.9572    4.2578    3.4859 C   0  0  0  0  0  0  0  0  0  0  0  0
   -3.0694    4.3241    2.4543 C   0  0  0  0  0  0  0  0  0  0  0  0
   -2.5469    4.2950    1.1269 O   0  0  0  0  0  0  0  0  0  0  0  0
   -2.0917    2.9996    0.7002 C   0  0  0  0  0  0  0  0  0  0  0  0
   -0.5906    3.1179    0.4732 C   0  0  0  0  0  0  0  0  0  0  0  0
   -0.0121    2.1267   -0.2423 C   0  0  0  0  0  0  0  0  0  0  0  0
    0.1870    2.5185   -1.5631 N   0  0  0  0  0  0  0  0  0  0  0  0
   -0.9798    2.4953   -2.3449 C   0  0  0  0  0  0  0  0  0  0  0  0
   -1.0639    3.1176   -3.3970 O   0  0  0  0  0  0  0  0  0  0  0  0
   -2.1761    1.7440   -1.6790 C   0  0  0  0  0  0  0  0  0  0  0  0
   -1.6083    0.4445   -1.1302 C   0  0  0  0  0  0  0  0  0  0  0  0
   -1.9238   -0.7513   -1.6486 C   0  0  0  0  0  0  0  0  0  0  0  0
   -1.1345   -1.9894   -1.3614 C   0  0  0  0  0  0  0  0  0  0  0  0
    0.0588   -1.8427   -0.3857 C   0  0  0  0  0  0  0  0  0  0  0  0
    1.1091   -2.7224   -0.8118 O   0  0  0  0  0  0  0  0  0  0  0  0
    1.0735   -4.0372   -0.2563 C   0  0  0  0  0  0  0  0  0  0  0  0
    0.3219   -5.0193   -1.1585 C   0  0  0  0  0  0  0  0  0  0  0  0
   -0.8510   -5.7101   -0.4639 C   0  0  0  0  0  0  0  0  0  0  0  0
   -0.4067   -6.6062    0.5986 N   0  0  0  0  0  0  0  0  0  0  0  0
    0.6516   -0.3995   -0.3447 C   0  0  0  0  0  0  0  0  0  0  0  0
    1.7348   -0.2578    0.7620 C   0  0  0  0  0  0  0  0  0  0  0  0
    3.0841   -0.6876    0.3635 N   0  0  0  0  0  0  0  0  0  0  0  0
    3.6108    0.0280   -0.5700 C   0  0  0  0  0  0  0  0  0  0  0  0
    4.8624   -0.2546   -1.0386 N   0  0  0  0  0  0  0  0  0  0  0  0
    5.8684   -0.0108   -0.2795 C   0  0  0  0  0  0  0  0  0  0  0  0
    7.1267   -0.2440   -0.7147 N   0  0  0  0  0  0  0  0  0  0  0  0
    5.8967    0.4845    0.9796 N   0  0  0  0  0  0  0  0  0  0  0  0
   -0.4859    0.6345   -0.1271 C   0  0  0  0  0  0  0  0  0  0  0  0
   -1.0576    0.3851    1.1608 O   0  0  0  0  0  0  0  0  0  0  0  0
   -2.8785    2.6591   -0.6208 C   0  0  0  0  0  0  0  0  0  0  0  0
   -4.2420    2.0554   -0.2514 C   0  0  0  0  0  0  0  0  0  0  0  0
   -2.3645    4.2866    4.4995 H   0  0  0  0  0  0  0  0  0  0  0  0
   -1.2776    5.1046    3.3539 H   0  0  0  0  0  0  0  0  0  0  0  0
   -1.3569    3.3506    3.3757 H   0  0  0  0  0  0  0  0  0  0  0  0
   -3.8063    3.5235    2.5918 H   0  0  0  0  0  0  0  0  0  0  0  0
   -3.6020    5.2757    2.5623 H   0  0  0  0  0  0  0  0  0  0  0  0
   -2.3071    2.2699    1.4864 H   0  0  0  0  0  0  0  0  0  0  0  0
   -0.2956    4.1498    0.2686 H   0  0  0  0  0  0  0  0  0  0  0  0
    0.7190    3.3566   -1.7739 H   0  0  0  0  0  0  0  0  0  0  0  0
   -2.8829    1.5268   -2.4926 H   0  0  0  0  0  0  0  0  0  0  0  0
   -2.7129   -0.8426   -2.3925 H   0  0  0  0  0  0  0  0  0  0  0  0
   -0.7741   -2.3558   -2.3330 H   0  0  0  0  0  0  0  0  0  0  0  0
   -1.8147   -2.7612   -0.9821 H   0  0  0  0  0  0  0  0  0  0  0  0
   -0.2764   -2.1110    0.6254 H   0  0  0  0  0  0  0  0  0  0  0  0
    0.7026   -4.0140    0.7750 H   0  0  0  0  0  0  0  0  0  0  0  0
    2.1179   -4.3654   -0.2037 H   0  0  0  0  0  0  0  0  0  0  0  0
    1.0239   -5.7924   -1.5008 H   0  0  0  0  0  0  0  0  0  0  0  0
   -0.0375   -4.5225   -2.0649 H   0  0  0  0  0  0  0  0  0  0  0  0
   -1.5496   -4.9715   -0.0556 H   0  0  0  0  0  0  0  0  0  0  0  0
   -1.4015   -6.3020   -1.2024 H   0  0  0  0  0  0  0  0  0  0  0  0
   -1.2069   -7.1305    0.9561 H   0  0  0  0  0  0  0  0  0  0  0  0
   -0.0463   -6.0722    1.3859 H   0  0  0  0  0  0  0  0  0  0  0  0
    1.1129   -0.1990   -1.3208 H   0  0  0  0  0  0  0  0  0  0  0  0
    1.4470   -0.8448    1.6414 H   0  0  0  0  0  0  0  0  0  0  0  0
    1.8031    0.7738    1.1227 H   0  0  0  0  0  0  0  0  0  0  0  0
    3.0933    0.8850   -1.0375 H   0  0  0  0  0  0  0  0  0  0  0  0
    7.7712    0.4970   -0.4818 H   0  0  0  0  0  0  0  0  0  0  0  0
    7.1265   -0.4370   -1.7102 H   0  0  0  0  0  0  0  0  0  0  0  0
    6.6542    0.0853    1.5227 H   0  0  0  0  0  0  0  0  0  0  0  0
    5.0154    0.3117    1.4589 H   0  0  0  0  0  0  0  0  0  0  0  0
   -0.5070    0.8444    1.8193 H   0  0  0  0  0  0  0  0  0  0  0  0
   -3.0926    3.6132   -1.1248 H   0  0  0  0  0  0  0  0  0  0  0  0
   -4.1293    1.1102    0.2904 H   0  0  0  0  0  0  0  0  0  0  0  0
   -4.8193    2.7414    0.3750 H   0  0  0  0  0  0  0  0  0  0  0  0
   -4.8357    1.8614   -1.1501 H   0  0  0  0  0  0  0  0  0  0  0  0
  2  1  1  0  0  0  0
  3  2  1  0  0  0  0
  4  3  1  0  0  0  0
  5  4  1  0  0  0  0
  6  5  2  0  0  0  0
  7  6  1  0  0  0  0
  8  7  1  0  0  0  0
  9  8  2  0  0  0  0
 10  8  1  0  0  0  0
 11 10  1  0  0  0  0
 12 11  2  0  0  0  0
 13 12  1  0  0  0  0
 14 13  1  0  0  0  0
 15 14  1  0  0  0  0
 16 15  1  0  0  0  0
 17 16  1  0  0  0  0
 18 17  1  0  0  0  0
 19 18  1  0  0  0  0
 20 14  1  0  0  0  0
 21 20  1  0  0  0  0
 22 21  1  0  0  0  0
 23 22  2  0  0  0  0
 24 23  1  0  0  0  0
 25 24  2  0  0  0  0
 26 25  1  0  0  0  0
 27 25  1  0  0  0  0
 28 20  1  0  0  0  0
 28  6  1  0  0  0  0
 28 11  1  0  0  0  0
 29 28  1  0  0  0  0
 30 10  1  0  0  0  0
 30  4  1  0  0  0  0
 31 30  1  0  0  0  0
  1 32  1  0  0  0  0
  1 33  1  0  0  0  0
  1 34  1  0  0  0  0
  2 35  1  0  0  0  0
  2 36  1  0  0  0  0
  4 37  1  0  0  0  0
  5 38  1  0  0  0  0
  7 39  1  0  0  0  0
 10 40  1  0  0  0  0
 12 41  1  0  0  0  0
 13 42  1  0  0  0  0
 13 43  1  0  0  0  0
 14 44  1  0  0  0  0
 16 45  1  0  0  0  0
 16 46  1  0  0  0  0
 17 47  1  0  0  0  0
 17 48  1  0  0  0  0
 18 49  1  0  0  0  0
 18 50  1  0  0  0  0
 19 51  1  0  0  0  0
 19 52  1  0  0  0  0
 20 53  1  0  0  0  0
 21 54  1  0  0  0  0
 21 55  1  0  0  0  0
 23 56  1  0  0  0  0
 26 57  1  0  0  0  0
 26 58  1  0  0  0  0
 27 59  1  0  0  0  0
 27 60  1  0  0  0  0
 29 61  1  0  0  0  0
 30 62  1  0  0  0  0
 31 63  1  0  0  0  0
 31 64  1  0  0  0  0
 31 65  1  0  0  0  0
M  END
>  <energy>
-11.520061356308474

$$$$
