CCCCCCc1=c-c=c2c3ccccc-2-c2nc-1c2C=CN3
                    3D

 45 48  0  0  0  0  0  0  0  0999 V2000
   -4.4497   -1.9234    0.6609 C   0  0  0  0  0  0  0  0  0  0  0  0
   -3.6014   -0.9946   -0.1942 C   0  0  0  0  0  0  0  0  0  0  0  0
   -3.9967    0.4808   -0.0240 C   0  0  0  0  0  0  0  0  0  0  0  0
   -3.3076    1.3896   -1.0568 C   0  0  0  0  0  0  0  0  0  0  0  0
   -2.3915    2.5026   -0.5276 C   0  0  0  0  0  0  0  0  0  0  0  0
   -1.3989    2.1769    0.5964 C   0  0  0  0  0  0  0  0  0  0  0  0
   -0.4162    1.0659    0.4110 C   0  0  0  0  0  0  0  0  0  0  0  0
   -0.1838    0.2540   -0.6560 C   0  0  0  0  0  0  0  0  0  0  0  0
    0.5881   -1.0035   -0.5059 C   0  0  0  0  0  0  0  0  0  0  0  0
    1.9294   -1.0521   -0.3073 C   0  0  0  0  0  0  0  0  0  0  0  0
    2.9507   -0.4390   -1.1459 C   0  0  0  0  0  0  0  0  0  0  0  0
    4.0228   -1.2071   -1.4457 C   0  0  0  0  0  0  0  0  0  0  0  0
    4.2531   -2.5683   -0.9654 C   0  0  0  0  0  0  0  0  0  0  0  0
    3.9522   -3.0295    0.2666 C   0  0  0  0  0  0  0  0  0  0  0  0
    3.3465   -2.2291    1.3257 C   0  0  0  0  0  0  0  0  0  0  0  0
    2.3831   -1.3233    1.0916 C   0  0  0  0  0  0  0  0  0  0  0  0
    1.9320   -0.2385    2.0968 C   0  0  0  0  0  0  0  0  0  0  0  0
    0.5309   -0.1708    2.4255 N   0  0  0  0  0  0  0  0  0  0  0  0
    0.4535    0.7680    1.5545 C   0  0  0  0  0  0  0  0  0  0  0  0
    1.8646    1.0841    1.7489 C   0  0  0  0  0  0  0  0  0  0  0  0
    2.6021    2.0265    0.8489 C   0  0  0  0  0  0  0  0  0  0  0  0
    2.9795    1.9119   -0.4359 C   0  0  0  0  0  0  0  0  0  0  0  0
    2.9207    0.9229   -1.4122 N   0  0  0  0  0  0  0  0  0  0  0  0
   -4.3697   -1.6660    1.7230 H   0  0  0  0  0  0  0  0  0  0  0  0
   -5.5026   -1.8726    0.3672 H   0  0  0  0  0  0  0  0  0  0  0  0
   -4.1178   -2.9578    0.5374 H   0  0  0  0  0  0  0  0  0  0  0  0
   -2.5502   -1.1328    0.0810 H   0  0  0  0  0  0  0  0  0  0  0  0
   -3.7080   -1.2940   -1.2462 H   0  0  0  0  0  0  0  0  0  0  0  0
   -5.0812    0.5616   -0.1774 H   0  0  0  0  0  0  0  0  0  0  0  0
   -3.8029    0.8063    1.0042 H   0  0  0  0  0  0  0  0  0  0  0  0
   -2.7618    0.7886   -1.7902 H   0  0  0  0  0  0  0  0  0  0  0  0
   -4.0948    1.8813   -1.6452 H   0  0  0  0  0  0  0  0  0  0  0  0
   -1.8366    2.9183   -1.3774 H   0  0  0  0  0  0  0  0  0  0  0  0
   -3.0262    3.3209   -0.1719 H   0  0  0  0  0  0  0  0  0  0  0  0
   -0.8371    3.0947    0.8251 H   0  0  0  0  0  0  0  0  0  0  0  0
   -1.9775    1.9614    1.5061 H   0  0  0  0  0  0  0  0  0  0  0  0
   -0.6919    0.3693   -1.6084 H   0  0  0  0  0  0  0  0  0  0  0  0
   -0.0064   -1.6517    0.1565 H   0  0  0  0  0  0  0  0  0  0  0  0
    4.8403   -0.7881   -2.0271 H   0  0  0  0  0  0  0  0  0  0  0  0
    4.7617   -3.2302   -1.6599 H   0  0  0  0  0  0  0  0  0  0  0  0
    4.2174   -4.0489    0.5357 H   0  0  0  0  0  0  0  0  0  0  0  0
    3.7462   -2.3648    2.3279 H   0  0  0  0  0  0  0  0  0  0  0  0
    2.8200    2.9720    1.3437 H   0  0  0  0  0  0  0  0  0  0  0  0
    3.4659    2.7873   -0.8715 H   0  0  0  0  0  0  0  0  0  0  0  0
    3.5500    1.1415   -2.1823 H   0  0  0  0  0  0  0  0  0  0  0  0
  2  1  1  0  0  0  0
  3  2  1  0  0  0  0
  4  3  1  0  0  0  0
  5  4  1  0  0  0  0
  6  5  1  0  0  0  0
  7  6  1  0  0  0  0
  8  7  2  0  0  0  0
  9  8  1  0  0  0  0
 10  9  2  0  0  0  0
 11 10  1  0  0  0  0
 12 11  2  0  0  0  0
 13 12  1  0  0  0  0
 14 13  2  0  0  0  0
 15 14  1  0  0  0  0
 16 15  2  0  0  0  0
 16 10  1  0  0  0  0
 17 16  1  0  0  0  0
 18 17  1  0  0  0  0
 19 18  2  0  0  0  0
 19  7  1  0  0  0  0
 20 19  1  0  0  0  0
 20 17  2  0  0  0  0
 21 20  1  0  0  0  0
 22 21  2  0  0  0  0
 23 22  1  0  0  0  0
 23 11  1  0  0  0  0
  1 24  1  0  0  0  0
  1 25  1  0  0  0  0
  1 26  1  0  0  0  0
  2 27  1  0  0  0  0
  2 28  1  0  0  0  0
  3 29  1  0  0  0  0
  3 30  1  0  0  0  0
  4 31  1  0  0  0  0
  4 32  1  0  0  0  0
  5 33  1  0  0  0  0
  5 34  1  0  0  0  0
  6 35  1  0  0  0  0
  6 36  1  0  0  0  0
  8 37  1  0  0  0  0
  9 38  1  0  0  0  0
 12 39  1  0  0  0  0
 13 40  1  0  0  0  0
 14 41  1  0  0  0  0
 15 42  1  0  0  0  0
 21 43  1  0  0  0  0
 22 44  1  0  0  0  0
 23 45  1  0  0  0  0
M  END
>  <energy>
206.44444823072453

$$$$
