CCCCCC(=O)OCCC1CN(C(=O)C=CC2(C)C34CCC(C)(C3)C2(C)CC4)CCO1
                    3D

 75 78  0  0  0  0  0  0  0  0999 V2000
    1.9558   -3.9511    2.2033 C   0  0  0  0  0  0  0  0  0  0  0  0
    3.1010   -3.0048    1.8667 C   0  0  0  0  0  0  0  0  0  0  0  0
    3.1335   -2.6758    0.3765 C   0  0  0  0  0  0  0  0  0  0  0  0
    4.3297   -1.7983   -0.0103 C   0  0  0  0  0  0  0  0  0  0  0  0
    4.3323   -1.5598   -1.5183 C   0  0  0  0  0  0  0  0  0  0  0  0
    5.3696   -0.5693   -1.9937 C   0  0  0  0  0  0  0  0  0  0  0  0
    6.5501   -0.8625   -2.1374 O   0  0  0  0  0  0  0  0  0  0  0  0
    4.8760    0.6367   -2.3839 O   0  0  0  0  0  0  0  0  0  0  0  0
    4.1702    1.4318   -1.4148 C   0  0  0  0  0  0  0  0  0  0  0  0
    2.6859    1.4989   -1.7390 C   0  0  0  0  0  0  0  0  0  0  0  0
    1.8784    2.3370   -0.7509 C   0  0  0  0  0  0  0  0  0  0  0  0
    1.8360    1.7588    0.6827 C   0  0  0  0  0  0  0  0  0  0  0  0
    0.9448    2.6059    1.4728 N   0  0  0  0  0  0  0  0  0  0  0  0
   -0.3071    2.0992    1.7324 C   0  0  0  0  0  0  0  0  0  0  0  0
   -0.4660    1.0769    2.3867 O   0  0  0  0  0  0  0  0  0  0  0  0
   -1.4385    2.7900    1.0756 C   0  0  0  0  0  0  0  0  0  0  0  0
   -2.5429    2.2119    0.5667 C   0  0  0  0  0  0  0  0  0  0  0  0
   -3.0783    0.7533    0.4493 C   0  0  0  0  0  0  0  0  0  0  0  0
   -3.7160    0.6865    1.8852 C   0  0  0  0  0  0  0  0  0  0  0  0
   -4.0254    0.6682   -1.0530 C   0  0  0  0  0  0  0  0  0  0  0  0
   -4.2574   -0.4654   -2.2994 C   0  0  0  0  0  0  0  0  0  0  0  0
   -3.7698   -1.8272   -1.7738 C   0  0  0  0  0  0  0  0  0  0  0  0
   -3.6537   -1.5107   -0.2823 C   0  0  0  0  0  0  0  0  0  0  0  0
   -3.9313   -2.7409    0.5730 C   0  0  0  0  0  0  0  0  0  0  0  0
   -4.7933   -0.4876   -0.2695 C   0  0  0  0  0  0  0  0  0  0  0  0
   -2.3602   -0.5958    0.0943 C   0  0  0  0  0  0  0  0  0  0  0  0
   -1.4323   -1.3000    1.0749 C   0  0  0  0  0  0  0  0  0  0  0  0
   -1.5733   -0.1155   -1.1319 C   0  0  0  0  0  0  0  0  0  0  0  0
   -2.5415    0.8747   -1.7811 C   0  0  0  0  0  0  0  0  0  0  0  0
    1.3078    4.0251    1.4614 C   0  0  0  0  0  0  0  0  0  0  0  0
    1.5836    4.5544    0.0470 C   0  0  0  0  0  0  0  0  0  0  0  0
    2.4246    3.6676   -0.7067 O   0  0  0  0  0  0  0  0  0  0  0  0
    1.9217   -4.1394    3.2809 H   0  0  0  0  0  0  0  0  0  0  0  0
    0.9899   -3.5329    1.9023 H   0  0  0  0  0  0  0  0  0  0  0  0
    2.0841   -4.9156    1.7005 H   0  0  0  0  0  0  0  0  0  0  0  0
    2.9919   -2.0855    2.4515 H   0  0  0  0  0  0  0  0  0  0  0  0
    4.0453   -3.4713    2.1692 H   0  0  0  0  0  0  0  0  0  0  0  0
    3.1659   -3.6066   -0.2030 H   0  0  0  0  0  0  0  0  0  0  0  0
    2.2053   -2.1572    0.1029 H   0  0  0  0  0  0  0  0  0  0  0  0
    5.2701   -2.2808    0.2877 H   0  0  0  0  0  0  0  0  0  0  0  0
    4.2807   -0.8524    0.5389 H   0  0  0  0  0  0  0  0  0  0  0  0
    3.3466   -1.2505   -1.8706 H   0  0  0  0  0  0  0  0  0  0  0  0
    4.5292   -2.5034   -2.0439 H   0  0  0  0  0  0  0  0  0  0  0  0
    4.6024    2.4373   -1.4728 H   0  0  0  0  0  0  0  0  0  0  0  0
    4.3617    1.0680   -0.4036 H   0  0  0  0  0  0  0  0  0  0  0  0
    2.5829    1.9386   -2.7399 H   0  0  0  0  0  0  0  0  0  0  0  0
    2.2432    0.5014   -1.8109 H   0  0  0  0  0  0  0  0  0  0  0  0
    0.8554    2.4082   -1.1474 H   0  0  0  0  0  0  0  0  0  0  0  0
    1.4800    0.7213    0.6776 H   0  0  0  0  0  0  0  0  0  0  0  0
    2.8171    1.7938    1.1694 H   0  0  0  0  0  0  0  0  0  0  0  0
   -1.3674    3.8692    1.0242 H   0  0  0  0  0  0  0  0  0  0  0  0
   -3.2821    2.9277    0.1883 H   0  0  0  0  0  0  0  0  0  0  0  0
   -2.9991    0.9876    2.6581 H   0  0  0  0  0  0  0  0  0  0  0  0
   -4.0046   -0.3190    2.2066 H   0  0  0  0  0  0  0  0  0  0  0  0
   -4.5778    1.3583    1.9780 H   0  0  0  0  0  0  0  0  0  0  0  0
   -3.8455   -0.2619   -3.2950 H   0  0  0  0  0  0  0  0  0  0  0  0
   -5.3295   -0.4856   -2.5667 H   0  0  0  0  0  0  0  0  0  0  0  0
   -2.8348   -2.1759   -2.2199 H   0  0  0  0  0  0  0  0  0  0  0  0
   -4.5291   -2.5917   -1.9846 H   0  0  0  0  0  0  0  0  0  0  0  0
   -3.1989   -3.5293    0.3660 H   0  0  0  0  0  0  0  0  0  0  0  0
   -4.9248   -3.1575    0.3617 H   0  0  0  0  0  0  0  0  0  0  0  0
   -3.9016   -2.5207    1.6464 H   0  0  0  0  0  0  0  0  0  0  0  0
   -5.7355   -0.8422   -0.7249 H   0  0  0  0  0  0  0  0  0  0  0  0
   -5.2407   -0.1991    0.6792 H   0  0  0  0  0  0  0  0  0  0  0  0
   -0.4582   -0.8180    1.1495 H   0  0  0  0  0  0  0  0  0  0  0  0
   -1.8615   -1.3776    2.0810 H   0  0  0  0  0  0  0  0  0  0  0  0
   -1.2132   -2.3172    0.7280 H   0  0  0  0  0  0  0  0  0  0  0  0
   -1.2685   -0.9234   -1.8022 H   0  0  0  0  0  0  0  0  0  0  0  0
   -0.6523    0.4100   -0.8515 H   0  0  0  0  0  0  0  0  0  0  0  0
   -2.4719    0.8195   -2.8747 H   0  0  0  0  0  0  0  0  0  0  0  0
   -2.2025    1.9108   -1.6664 H   0  0  0  0  0  0  0  0  0  0  0  0
    0.5521    4.6266    1.9766 H   0  0  0  0  0  0  0  0  0  0  0  0
    2.2337    4.0925    2.0499 H   0  0  0  0  0  0  0  0  0  0  0  0
    2.0959    5.5222    0.1089 H   0  0  0  0  0  0  0  0  0  0  0  0
    0.6519    4.7094   -0.5083 H   0  0  0  0  0  0  0  0  0  0  0  0
  2  1  1  0  0  0  0
  3  2  1  0  0  0  0
  4  3  1  0  0  0  0
  5  4  1  0  0  0  0
  6  5  1  0  0  0  0
  7  6  2  0  0  0  0
  8  6  1  0  0  0  0
  9  8  1  0  0  0  0
 10  9  1  0  0  0  0
 11 10  1  0  0  0  0
 12 11  1  0  0  0  0
 13 12  1  0  0  0  0
 14 13  1  0  0  0  0
 15 14  2  0  0  0  0
 16 14  1  0  0  0  0
 17 16  2  0  0  0  0
 18 17  1  0  0  0  0
 19 18  1  0  0  0  0
 20 18  1  0  0  0  0
 21 20  1  0  0  0  0
 22 21  1  0  0  0  0
 23 22  1  0  0  0  0
 24 23  1  0  0  0  0
 25 23  1  0  0  0  0
 25 20  1  0  0  0  0
 26 23  1  0  0  0  0
 26 18  1  0  0  0  0
 27 26  1  0  0  0  0
 28 26  1  0  0  0  0
 29 28  1  0  0  0  0
 29 20  1  0  0  0  0
 30 13  1  0  0  0  0
 31 30  1  0  0  0  0
 32 31  1  0  0  0  0
 32 11  1  0  0  0  0
  1 33  1  0  0  0  0
  1 34  1  0  0  0  0
  1 35  1  0  0  0  0
  2 36  1  0  0  0  0
  2 37  1  0  0  0  0
  3 38  1  0  0  0  0
  3 39  1  0  0  0  0
  4 40  1  0  0  0  0
  4 41  1  0  0  0  0
  5 42  1  0  0  0  0
  5 43  1  0  0  0  0
  9 44  1  0  0  0  0
  9 45  1  0  0  0  0
 10 46  1  0  0  0  0
 10 47  1  0  0  0  0
 11 48  1  0  0  0  0
 12 49  1  0  0  0  0
 12 50  1  0  0  0  0
 16 51  1  0  0  0  0
 17 52  1  0  0  0  0
 19 53  1  0  0  0  0
 19 54  1  0  0  0  0
 19 55  1  0  0  0  0
 21 56  1  0  0  0  0
 21 57  1  0  0  0  0
 22 58  1  0  0  0  0
 22 59  1  0  0  0  0
 24 60  1  0  0  0  0
 24 61  1  0  0  0  0
 24 62  1  0  0  0  0
 25 63  1  0  0  0  0
 25 64  1  0  0  0  0
 27 65  1  0  0  0  0
 27 66  1  0  0  0  0
 27 67  1  0  0  0  0
 28 68  1  0  0  0  0
 28 69  1  0  0  0  0
 29 70  1  0  0  0  0
 29 71  1  0  0  0  0
 30 72  1  0  0  0  0
 30 73  1  0  0  0  0
 31 74  1  0  0  0  0
 31 75  1  0  0  0  0
M  END
>  <energy>
302.75765856385954

$$$$
