COc1cccc(OCC[N+](C)(C)CCOc2cc3ccc2-c2cccc(n2)C(C)C3C)c1
                    3D

 68 71  0  0  0  0  0  0  0  0999 V2000
    1.4233   -2.4921   -4.7596 C   0  0  0  0  0  0  0  0  0  0  0  0
    1.9519   -3.1212   -3.5919 O   0  0  0  0  0  0  0  0  0  0  0  0
    0.9359   -3.5201   -2.7688 C   0  0  0  0  0  0  0  0  0  0  0  0
    0.6108   -4.8681   -2.7086 C   0  0  0  0  0  0  0  0  0  0  0  0
   -0.4122   -5.2918   -1.8620 C   0  0  0  0  0  0  0  0  0  0  0  0
   -1.0851   -4.3694   -1.0533 C   0  0  0  0  0  0  0  0  0  0  0  0
   -0.7297   -3.0196   -1.0897 C   0  0  0  0  0  0  0  0  0  0  0  0
   -1.3184   -2.0174   -0.3748 O   0  0  0  0  0  0  0  0  0  0  0  0
   -1.9794   -2.3756    0.8304 C   0  0  0  0  0  0  0  0  0  0  0  0
   -2.5653   -1.1143    1.4914 C   0  0  0  0  0  0  0  0  0  0  0  0
   -3.7091   -0.3938    0.7029 N   0  3  0  0  0  0  0  0  0  0  0  0
   -4.7708   -1.4103    0.2762 C   0  0  0  0  0  0  0  0  0  0  0  0
   -4.3763    0.5916    1.6620 C   0  0  0  0  0  0  0  0  0  0  0  0
   -3.2217    0.3519   -0.5854 C   0  0  0  0  0  0  0  0  0  0  0  0
   -2.5007    1.6946   -0.3673 C   0  0  0  0  0  0  0  0  0  0  0  0
   -1.3634    1.5254    0.4759 O   0  0  0  0  0  0  0  0  0  0  0  0
   -0.2040    1.8533   -0.1737 C   0  0  0  0  0  0  0  0  0  0  0  0
    0.8316    0.9250   -0.1152 C   0  0  0  0  0  0  0  0  0  0  0  0
    2.0890    1.3200   -0.5885 C   0  0  0  0  0  0  0  0  0  0  0  0
    2.1168    2.3537   -1.5402 C   0  0  0  0  0  0  0  0  0  0  0  0
    1.0571    3.2798   -1.5272 C   0  0  0  0  0  0  0  0  0  0  0  0
    0.1603    3.1838   -0.4446 C   0  0  0  0  0  0  0  0  0  0  0  0
    0.6650    3.9191    0.8218 C   0  0  0  0  0  0  0  0  0  0  0  0
   -0.0136    3.8583    2.0273 C   0  0  0  0  0  0  0  0  0  0  0  0
    0.7023    3.4020    3.1398 C   0  0  0  0  0  0  0  0  0  0  0  0
    2.0061    2.9152    2.9680 C   0  0  0  0  0  0  0  0  0  0  0  0
    2.6124    3.1032    1.7397 C   0  0  0  0  0  0  0  0  0  0  0  0
    2.0192    3.9030    0.8350 N   0  0  0  0  0  0  0  0  0  0  0  0
    3.7857    2.2944    1.1774 C   0  0  0  0  0  0  0  0  0  0  0  0
    4.8196    1.9326    2.2485 C   0  0  0  0  0  0  0  0  0  0  0  0
    3.3616    1.0384    0.2445 C   0  0  0  0  0  0  0  0  0  0  0  0
    3.2601   -0.2775    1.0314 C   0  0  0  0  0  0  0  0  0  0  0  0
    0.2816   -2.5984   -1.9552 C   0  0  0  0  0  0  0  0  0  0  0  0
    0.7334   -3.1590   -5.2909 H   0  0  0  0  0  0  0  0  0  0  0  0
    0.9227   -1.5499   -4.5100 H   0  0  0  0  0  0  0  0  0  0  0  0
    2.2573   -2.2634   -5.4306 H   0  0  0  0  0  0  0  0  0  0  0  0
    1.1468   -5.5858   -3.3252 H   0  0  0  0  0  0  0  0  0  0  0  0
   -0.6846   -6.3446   -1.8350 H   0  0  0  0  0  0  0  0  0  0  0  0
   -1.8835   -4.7442   -0.4240 H   0  0  0  0  0  0  0  0  0  0  0  0
   -1.2494   -2.8179    1.5213 H   0  0  0  0  0  0  0  0  0  0  0  0
   -2.7731   -3.1064    0.6576 H   0  0  0  0  0  0  0  0  0  0  0  0
   -1.7856   -0.3788    1.6883 H   0  0  0  0  0  0  0  0  0  0  0  0
   -3.0037   -1.4046    2.4534 H   0  0  0  0  0  0  0  0  0  0  0  0
   -5.6347   -0.8619   -0.1141 H   0  0  0  0  0  0  0  0  0  0  0  0
   -4.3524   -2.0497   -0.5056 H   0  0  0  0  0  0  0  0  0  0  0  0
   -5.0587   -1.9957    1.1549 H   0  0  0  0  0  0  0  0  0  0  0  0
   -4.8536    0.0191    2.4638 H   0  0  0  0  0  0  0  0  0  0  0  0
   -3.6108    1.2496    2.0822 H   0  0  0  0  0  0  0  0  0  0  0  0
   -5.1260    1.1605    1.1042 H   0  0  0  0  0  0  0  0  0  0  0  0
   -2.5961   -0.3364   -1.1497 H   0  0  0  0  0  0  0  0  0  0  0  0
   -4.1216    0.5416   -1.1826 H   0  0  0  0  0  0  0  0  0  0  0  0
   -2.2458    2.1127   -1.3517 H   0  0  0  0  0  0  0  0  0  0  0  0
   -3.1645    2.4236    0.1097 H   0  0  0  0  0  0  0  0  0  0  0  0
    0.6989    0.0261    0.4740 H   0  0  0  0  0  0  0  0  0  0  0  0
    3.0486    2.6384   -2.0267 H   0  0  0  0  0  0  0  0  0  0  0  0
    1.2624    4.2554   -1.9720 H   0  0  0  0  0  0  0  0  0  0  0  0
   -1.0890    3.9732    2.0812 H   0  0  0  0  0  0  0  0  0  0  0  0
    0.2024    3.2716    4.0953 H   0  0  0  0  0  0  0  0  0  0  0  0
    2.4826    2.3545    3.7628 H   0  0  0  0  0  0  0  0  0  0  0  0
    4.2992    2.9890    0.4952 H   0  0  0  0  0  0  0  0  0  0  0  0
    5.6862    1.4362    1.7986 H   0  0  0  0  0  0  0  0  0  0  0  0
    5.1738    2.8324    2.7673 H   0  0  0  0  0  0  0  0  0  0  0  0
    4.4063    1.2643    3.0101 H   0  0  0  0  0  0  0  0  0  0  0  0
    4.1805    0.8915   -0.4733 H   0  0  0  0  0  0  0  0  0  0  0  0
    4.2383   -0.5794    1.4207 H   0  0  0  0  0  0  0  0  0  0  0  0
    2.9046   -1.0939    0.3921 H   0  0  0  0  0  0  0  0  0  0  0  0
    2.5738   -0.1911    1.8790 H   0  0  0  0  0  0  0  0  0  0  0  0
    0.5748   -1.5531   -1.9865 H   0  0  0  0  0  0  0  0  0  0  0  0
  2  1  1  0  0  0  0
  3  2  1  0  0  0  0
  4  3  2  0  0  0  0
  5  4  1  0  0  0  0
  6  5  2  0  0  0  0
  7  6  1  0  0  0  0
  8  7  1  0  0  0  0
  9  8  1  0  0  0  0
 10  9  1  0  0  0  0
 11 10  1  0  0  0  0
 12 11  1  0  0  0  0
 13 11  1  0  0  0  0
 14 11  1  0  0  0  0
 15 14  1  0  0  0  0
 16 15  1  0  0  0  0
 17 16  1  0  0  0  0
 18 17  2  0  0  0  0
 19 18  1  0  0  0  0
 20 19  2  0  0  0  0
 21 20  1  0  0  0  0
 22 21  2  0  0  0  0
 22 17  1  0  0  0  0
 23 22  1  0  0  0  0
 24 23  2  0  0  0  0
 25 24  1  0  0  0  0
 26 25  2  0  0  0  0
 27 26  1  0  0  0  0
 28 27  2  0  0  0  0
 28 23  1  0  0  0  0
 29 27  1  0  0  0  0
 30 29  1  0  0  0  0
 31 29  1  0  0  0  0
 31 19  1  0  0  0  0
 32 31  1  0  0  0  0
 33  7  2  0  0  0  0
 33  3  1  0  0  0  0
  1 34  1  0  0  0  0
  1 35  1  0  0  0  0
  1 36  1  0  0  0  0
  4 37  1  0  0  0  0
  5 38  1  0  0  0  0
  6 39  1  0  0  0  0
  9 40  1  0  0  0  0
  9 41  1  0  0  0  0
 10 42  1  0  0  0  0
 10 43  1  0  0  0  0
 12 44  1  0  0  0  0
 12 45  1  0  0  0  0
 12 46  1  0  0  0  0
 13 47  1  0  0  0  0
 13 48  1  0  0  0  0
 13 49  1  0  0  0  0
 14 50  1  0  0  0  0
 14 51  1  0  0  0  0
 15 52  1  0  0  0  0
 15 53  1  0  0  0  0
 18 54  1  0  0  0  0
 20 55  1  0  0  0  0
 21 56  1  0  0  0  0
 24 57  1  0  0  0  0
 25 58  1  0  0  0  0
 26 59  1  0  0  0  0
 29 60  1  0  0  0  0
 30 61  1  0  0  0  0
 30 62  1  0  0  0  0
 30 63  1  0  0  0  0
 31 64  1  0  0  0  0
 32 65  1  0  0  0  0
 32 66  1  0  0  0  0
 32 67  1  0  0  0  0
 33 68  1  0  0  0  0
M  CHG  1  11   1
M  END
>  <energy>
275.58364357125919

$$$$
