Cc1cc2c(oc1=O)[n+]1c2c(N(C)C)n2c3nc4cccc1n2c(C)c4-c1ccccc1C3
                    3D

 55 61  0  0  0  0  0  0  0  0999 V2000
   -5.2403   -2.3389   -2.0470 C   0  0  0  0  0  0  0  0  0  0  0  0
   -3.9563   -2.6558   -1.3367 C   0  0  0  0  0  0  0  0  0  0  0  0
   -3.6794   -2.2505   -0.0782 C   0  0  0  0  0  0  0  0  0  0  0  0
   -2.2899   -2.4740    0.3433 C   0  0  0  0  0  0  0  0  0  0  0  0
   -1.4258   -2.9947   -0.5618 C   0  0  0  0  0  0  0  0  0  0  0  0
   -1.6242   -3.5732   -1.6807 O   0  0  0  0  0  0  0  0  0  0  0  0
   -2.9290   -3.4195   -2.1645 C   0  0  0  0  0  0  0  0  0  0  0  0
   -3.2393   -3.8848   -3.2603 O   0  0  0  0  0  0  0  0  0  0  0  0
   -0.3911   -2.3035   -0.0110 N   0  3  0  0  0  0  0  0  0  0  0  0
   -1.2589   -1.5959    0.7830 C   0  0  0  0  0  0  0  0  0  0  0  0
   -0.9993   -0.4674    1.4692 C   0  0  0  0  0  0  0  0  0  0  0  0
   -1.8661    0.1322    2.4012 N   0  0  0  0  0  0  0  0  0  0  0  0
   -1.3568    1.1857    3.3024 C   0  0  0  0  0  0  0  0  0  0  0  0
   -2.9441   -0.6325    3.0402 C   0  0  0  0  0  0  0  0  0  0  0  0
    0.2024    0.1300    1.0000 N   0  0  0  0  0  0  0  0  0  0  0  0
    0.0440    0.9473   -0.1782 C   0  0  0  0  0  0  0  0  0  0  0  0
    0.1609    0.4138   -1.3862 N   0  0  0  0  0  0  0  0  0  0  0  0
    1.4755    0.3989   -1.8531 C   0  0  0  0  0  0  0  0  0  0  0  0
    1.9518   -0.4991   -2.7506 C   0  0  0  0  0  0  0  0  0  0  0  0
    1.8690   -1.9442   -2.5411 C   0  0  0  0  0  0  0  0  0  0  0  0
    1.5152   -2.5887   -1.4140 C   0  0  0  0  0  0  0  0  0  0  0  0
    0.8600   -1.9711   -0.2245 C   0  0  0  0  0  0  0  0  0  0  0  0
    1.3751   -0.9402    0.4972 N   0  0  0  0  0  0  0  0  0  0  0  0
    2.5885   -0.2489    0.1952 C   0  0  0  0  0  0  0  0  0  0  0  0
    3.5497   -0.1828    1.3524 C   0  0  0  0  0  0  0  0  0  0  0  0
    2.4871    0.6883   -0.8019 C   0  0  0  0  0  0  0  0  0  0  0  0
    2.7437    2.1197   -0.5124 C   0  0  0  0  0  0  0  0  0  0  0  0
    3.9906    2.7039   -0.7449 C   0  0  0  0  0  0  0  0  0  0  0  0
    4.1711    4.0725   -0.5492 C   0  0  0  0  0  0  0  0  0  0  0  0
    3.1198    4.8618   -0.0901 C   0  0  0  0  0  0  0  0  0  0  0  0
    1.8662    4.2976    0.1381 C   0  0  0  0  0  0  0  0  0  0  0  0
    1.6484    2.9309   -0.0942 C   0  0  0  0  0  0  0  0  0  0  0  0
    0.2015    2.4498   -0.0248 C   0  0  0  0  0  0  0  0  0  0  0  0
   -5.9641   -1.8488   -1.3879 H   0  0  0  0  0  0  0  0  0  0  0  0
   -5.7169   -3.2350   -2.4601 H   0  0  0  0  0  0  0  0  0  0  0  0
   -5.0203   -1.6478   -2.8700 H   0  0  0  0  0  0  0  0  0  0  0  0
   -4.3862   -1.6884    0.5177 H   0  0  0  0  0  0  0  0  0  0  0  0
   -0.8119    0.7230    4.1280 H   0  0  0  0  0  0  0  0  0  0  0  0
   -2.1815    1.7797    3.7096 H   0  0  0  0  0  0  0  0  0  0  0  0
   -0.6769    1.8766    2.8084 H   0  0  0  0  0  0  0  0  0  0  0  0
   -3.8247   -0.6681    2.3971 H   0  0  0  0  0  0  0  0  0  0  0  0
   -2.6091   -1.6489    3.2701 H   0  0  0  0  0  0  0  0  0  0  0  0
   -3.2652   -0.1837    3.9889 H   0  0  0  0  0  0  0  0  0  0  0  0
    2.9521   -0.2971   -3.1548 H   0  0  0  0  0  0  0  0  0  0  0  0
    2.2596   -2.5294   -3.3765 H   0  0  0  0  0  0  0  0  0  0  0  0
    1.5475   -3.6717   -1.4033 H   0  0  0  0  0  0  0  0  0  0  0  0
    3.0750    0.2279    2.2494 H   0  0  0  0  0  0  0  0  0  0  0  0
    4.4323    0.4164    1.1118 H   0  0  0  0  0  0  0  0  0  0  0  0
    3.9158   -1.1902    1.5833 H   0  0  0  0  0  0  0  0  0  0  0  0
    4.8251    2.1144   -1.1165 H   0  0  0  0  0  0  0  0  0  0  0  0
    5.1324    4.5333   -0.7791 H   0  0  0  0  0  0  0  0  0  0  0  0
    3.2600    5.9309    0.0490 H   0  0  0  0  0  0  0  0  0  0  0  0
    1.0431    4.9445    0.4364 H   0  0  0  0  0  0  0  0  0  0  0  0
   -0.2428    2.7675    0.9194 H   0  0  0  0  0  0  0  0  0  0  0  0
   -0.3633    2.9282   -0.8376 H   0  0  0  0  0  0  0  0  0  0  0  0
  2  1  1  0  0  0  0
  3  2  2  0  0  0  0
  4  3  1  0  0  0  0
  5  4  2  0  0  0  0
  6  5  1  0  0  0  0
  7  6  1  0  0  0  0
  7  2  1  0  0  0  0
  8  7  2  0  0  0  0
  9  5  1  0  0  0  0
 10  9  1  0  0  0  0
 10  4  1  0  0  0  0
 11 10  2  0  0  0  0
 12 11  1  0  0  0  0
 13 12  1  0  0  0  0
 14 12  1  0  0  0  0
 15 11  1  0  0  0  0
 16 15  1  0  0  0  0
 17 16  2  0  0  0  0
 18 17  1  0  0  0  0
 19 18  2  0  0  0  0
 20 19  1  0  0  0  0
 21 20  2  0  0  0  0
 22 21  1  0  0  0  0
 22  9  2  0  0  0  0
 23 22  1  0  0  0  0
 23 15  1  0  0  0  0
 24 23  1  0  0  0  0
 25 24  1  0  0  0  0
 26 24  2  0  0  0  0
 26 18  1  0  0  0  0
 27 26  1  0  0  0  0
 28 27  2  0  0  0  0
 29 28  1  0  0  0  0
 30 29  2  0  0  0  0
 31 30  1  0  0  0  0
 32 31  2  0  0  0  0
 32 27  1  0  0  0  0
 33 32  1  0  0  0  0
 33 16  1  0  0  0  0
  1 34  1  0  0  0  0
  1 35  1  0  0  0  0
  1 36  1  0  0  0  0
  3 37  1  0  0  0  0
 13 38  1  0  0  0  0
 13 39  1  0  0  0  0
 13 40  1  0  0  0  0
 14 41  1  0  0  0  0
 14 42  1  0  0  0  0
 14 43  1  0  0  0  0
 19 44  1  0  0  0  0
 20 45  1  0  0  0  0
 21 46  1  0  0  0  0
 25 47  1  0  0  0  0
 25 48  1  0  0  0  0
 25 49  1  0  0  0  0
 28 50  1  0  0  0  0
 29 51  1  0  0  0  0
 30 52  1  0  0  0  0
 31 53  1  0  0  0  0
 33 54  1  0  0  0  0
 33 55  1  0  0  0  0
M  CHG  1   9   1
M  END
>  <energy>
338.52646579304388

$$$$
