CC(C)C(NC(=O)C1N(C(=O)C(N)C2CCCCC2)C2C[SH]1CC2(C)C)C(=O)O
                    3D

 66 68  0  0  0  0  0  0  0  0999 V2000
    4.2031    1.0545   -1.2473 C   0  0  0  0  0  0  0  0  0  0  0  0
    4.0467    0.1330   -0.0216 C   0  0  0  0  0  0  0  0  0  0  0  0
    5.3439   -0.6798    0.1030 C   0  0  0  0  0  0  0  0  0  0  0  0
    3.7015    0.9454    1.2603 C   0  0  0  0  0  0  0  0  0  0  0  0
    2.5703    1.8634    1.0075 N   0  0  0  0  0  0  0  0  0  0  0  0
    1.3082    1.3201    0.8185 C   0  0  0  0  0  0  0  0  0  0  0  0
    0.9545    0.2835    1.3748 O   0  0  0  0  0  0  0  0  0  0  0  0
    0.4462    2.0630   -0.2057 C   0  0  0  0  0  0  0  0  0  0  0  0
   -0.6600    1.2138   -0.7016 N   0  0  0  0  0  0  0  0  0  0  0  0
   -0.3210    0.1499   -1.5234 C   0  0  0  0  0  0  0  0  0  0  0  0
    0.8148    0.0666   -2.0006 O   0  0  0  0  0  0  0  0  0  0  0  0
   -1.4044   -0.9242   -1.7773 C   0  0  0  0  0  0  0  0  0  0  0  0
   -2.0443   -0.6361   -3.0817 N   0  0  0  0  0  0  0  0  0  0  0  0
   -0.7896   -2.3580   -1.7794 C   0  0  0  0  0  0  0  0  0  0  0  0
   -1.8542   -3.4745   -1.9118 C   0  0  0  0  0  0  0  0  0  0  0  0
   -2.6380   -3.7102   -0.6201 C   0  0  0  0  0  0  0  0  0  0  0  0
   -1.7017   -4.0364    0.5366 C   0  0  0  0  0  0  0  0  0  0  0  0
   -0.6763   -2.9285    0.7314 C   0  0  0  0  0  0  0  0  0  0  0  0
    0.1025   -2.6685   -0.5539 C   0  0  0  0  0  0  0  0  0  0  0  0
   -1.9979    1.8898   -0.6111 C   0  0  0  0  0  0  0  0  0  0  0  0
   -1.6588    3.3810   -0.9072 C   0  0  0  0  0  0  0  0  0  0  0  0
   -0.4916    3.4399    0.3988 S   0  0  0  0  0  0  0  0  0  0  0  0
   -1.5717    2.8473    1.6846 C   0  0  0  0  0  0  0  0  0  0  0  0
   -2.5372    1.8993    0.8869 C   0  0  0  0  0  0  0  0  0  0  0  0
   -3.9835    2.4390    0.9201 C   0  0  0  0  0  0  0  0  0  0  0  0
   -2.5705    0.5063    1.5229 C   0  0  0  0  0  0  0  0  0  0  0  0
    3.5525    0.1011    2.5549 C   0  0  0  0  0  0  0  0  0  0  0  0
    4.1172   -0.9507    2.8115 O   0  0  0  0  0  0  0  0  0  0  0  0
    2.8390    0.7142    3.5268 O   0  0  0  0  0  0  0  0  0  0  0  0
    4.4709    0.4799   -2.1396 H   0  0  0  0  0  0  0  0  0  0  0  0
    4.9866    1.7999   -1.0841 H   0  0  0  0  0  0  0  0  0  0  0  0
    3.2780    1.5824   -1.4884 H   0  0  0  0  0  0  0  0  0  0  0  0
    3.2330   -0.5696   -0.2358 H   0  0  0  0  0  0  0  0  0  0  0  0
    5.2191   -1.5452    0.7566 H   0  0  0  0  0  0  0  0  0  0  0  0
    6.1695   -0.0723    0.4884 H   0  0  0  0  0  0  0  0  0  0  0  0
    5.6524   -1.0780   -0.8710 H   0  0  0  0  0  0  0  0  0  0  0  0
    4.5468    1.6107    1.4768 H   0  0  0  0  0  0  0  0  0  0  0  0
    2.8000    2.6706    0.4444 H   0  0  0  0  0  0  0  0  0  0  0  0
    1.0599    2.3756   -1.0592 H   0  0  0  0  0  0  0  0  0  0  0  0
   -2.1604   -0.8570   -0.9959 H   0  0  0  0  0  0  0  0  0  0  0  0
   -2.8319   -1.2627   -3.2298 H   0  0  0  0  0  0  0  0  0  0  0  0
   -2.4104    0.3114   -3.0884 H   0  0  0  0  0  0  0  0  0  0  0  0
   -0.1367   -2.4254   -2.6619 H   0  0  0  0  0  0  0  0  0  0  0  0
   -1.3435   -4.4100   -2.1818 H   0  0  0  0  0  0  0  0  0  0  0  0
   -2.5499   -3.2679   -2.7325 H   0  0  0  0  0  0  0  0  0  0  0  0
   -3.2375   -2.8253   -0.3754 H   0  0  0  0  0  0  0  0  0  0  0  0
   -3.3427   -4.5372   -0.7641 H   0  0  0  0  0  0  0  0  0  0  0  0
   -1.1825   -4.9806    0.3331 H   0  0  0  0  0  0  0  0  0  0  0  0
   -2.2765   -4.1801    1.4568 H   0  0  0  0  0  0  0  0  0  0  0  0
    0.0190   -3.2092    1.5308 H   0  0  0  0  0  0  0  0  0  0  0  0
   -1.1778   -2.0160    1.0611 H   0  0  0  0  0  0  0  0  0  0  0  0
    0.6891   -3.5679   -0.7824 H   0  0  0  0  0  0  0  0  0  0  0  0
    0.8385   -1.8780   -0.3805 H   0  0  0  0  0  0  0  0  0  0  0  0
   -2.7210    1.4791   -1.3182 H   0  0  0  0  0  0  0  0  0  0  0  0
   -1.1867    3.5183   -1.8825 H   0  0  0  0  0  0  0  0  0  0  0  0
   -2.4837    4.0842   -0.7824 H   0  0  0  0  0  0  0  0  0  0  0  0
    0.1448    4.6078    0.5889 H   0  0  0  0  0  0  0  0  0  0  0  0
   -2.1074    3.6956    2.1265 H   0  0  0  0  0  0  0  0  0  0  0  0
   -1.0065    2.3291    2.4617 H   0  0  0  0  0  0  0  0  0  0  0  0
   -4.0764    3.4397    0.4904 H   0  0  0  0  0  0  0  0  0  0  0  0
   -4.3569    2.4923    1.9486 H   0  0  0  0  0  0  0  0  0  0  0  0
   -4.6572    1.7766    0.3608 H   0  0  0  0  0  0  0  0  0  0  0  0
   -3.0293    0.5418    2.5181 H   0  0  0  0  0  0  0  0  0  0  0  0
   -1.5684    0.0941    1.6504 H   0  0  0  0  0  0  0  0  0  0  0  0
   -3.1578   -0.1949    0.9221 H   0  0  0  0  0  0  0  0  0  0  0  0
    2.7941    0.0442    4.2420 H   0  0  0  0  0  0  0  0  0  0  0  0
  2  1  1  0  0  0  0
  3  2  1  0  0  0  0
  4  2  1  0  0  0  0
  5  4  1  0  0  0  0
  6  5  1  0  0  0  0
  7  6  2  0  0  0  0
  8  6  1  0  0  0  0
  9  8  1  0  0  0  0
 10  9  1  0  0  0  0
 11 10  2  0  0  0  0
 12 10  1  0  0  0  0
 13 12  1  0  0  0  0
 14 12  1  0  0  0  0
 15 14  1  0  0  0  0
 16 15  1  0  0  0  0
 17 16  1  0  0  0  0
 18 17  1  0  0  0  0
 19 18  1  0  0  0  0
 19 14  1  0  0  0  0
 20  9  1  0  0  0  0
 21 20  1  0  0  0  0
 22 21  1  0  0  0  0
 22  8  1  0  0  0  0
 23 22  1  0  0  0  0
 24 23  1  0  0  0  0
 24 20  1  0  0  0  0
 25 24  1  0  0  0  0
 26 24  1  0  0  0  0
 27  4  1  0  0  0  0
 28 27  2  0  0  0  0
 29 27  1  0  0  0  0
  1 30  1  0  0  0  0
  1 31  1  0  0  0  0
  1 32  1  0  0  0  0
  2 33  1  0  0  0  0
  3 34  1  0  0  0  0
  3 35  1  0  0  0  0
  3 36  1  0  0  0  0
  4 37  1  0  0  0  0
  5 38  1  0  0  0  0
  8 39  1  0  0  0  0
 12 40  1  0  0  0  0
 13 41  1  0  0  0  0
 13 42  1  0  0  0  0
 14 43  1  0  0  0  0
 15 44  1  0  0  0  0
 15 45  1  0  0  0  0
 16 46  1  0  0  0  0
 16 47  1  0  0  0  0
 17 48  1  0  0  0  0
 17 49  1  0  0  0  0
 18 50  1  0  0  0  0
 18 51  1  0  0  0  0
 19 52  1  0  0  0  0
 19 53  1  0  0  0  0
 20 54  1  0  0  0  0
 21 55  1  0  0  0  0
 21 56  1  0  0  0  0
 22 57  1  0  0  0  0
 23 58  1  0  0  0  0
 23 59  1  0  0  0  0
 25 60  1  0  0  0  0
 25 61  1  0  0  0  0
 25 62  1  0  0  0  0
 26 63  1  0  0  0  0
 26 64  1  0  0  0  0
 26 65  1  0  0  0  0
 29 66  1  0  0  0  0
M  END
>  <energy>
119.92966707514411

$$$$
