O=C(NC12CC3C4C5NC6NC1C3C64C52)C1CC1
                    3D

 35 41  0  0  0  0  0  0  0  0999 V2000
    2.5236    0.9495    0.5299 O   0  0  0  0  0  0  0  0  0  0  0  0
    2.2162   -0.2331    0.5358 C   0  0  0  0  0  0  0  0  0  0  0  0
    0.9555   -0.7331    0.7553 N   0  0  0  0  0  0  0  0  0  0  0  0
   -0.2357    0.0848    0.7497 C   0  0  0  0  0  0  0  0  0  0  0  0
   -0.2441    1.4027    1.5376 C   0  0  0  0  0  0  0  0  0  0  0  0
   -1.6525    1.9067    1.1999 C   0  0  0  0  0  0  0  0  0  0  0  0
   -2.1565    2.0268   -0.3645 C   0  0  0  0  0  0  0  0  0  0  0  0
   -1.4181    1.3504   -1.6243 C   0  0  0  0  0  0  0  0  0  0  0  0
   -2.2880    0.1748   -2.1719 N   0  0  0  0  0  0  0  0  0  0  0  0
   -2.8185   -0.4667   -0.9703 C   0  0  0  0  0  0  0  0  0  0  0  0
   -2.1065   -1.5136   -0.1867 N   0  0  0  0  0  0  0  0  0  0  0  0
   -1.5443   -0.7234    1.0907 C   0  0  0  0  0  0  0  0  0  0  0  0
   -2.3911    0.5273    1.2927 C   0  0  0  0  0  0  0  0  0  0  0  0
   -2.2593    0.5644   -0.1592 C   0  0  0  0  0  0  0  0  0  0  0  0
   -0.5864    0.5109   -0.6518 C   0  0  0  0  0  0  0  0  0  0  0  0
    3.2202   -1.2858    0.2166 C   0  0  0  0  0  0  0  0  0  0  0  0
    3.7441   -1.3576   -1.2000 C   0  0  0  0  0  0  0  0  0  0  0  0
    4.6604   -0.9459   -0.0848 C   0  0  0  0  0  0  0  0  0  0  0  0
    0.8108   -1.6977    0.4834 H   0  0  0  0  0  0  0  0  0  0  0  0
    0.5001    2.1287    1.1998 H   0  0  0  0  0  0  0  0  0  0  0  0
   -0.1140    1.2340    2.6132 H   0  0  0  0  0  0  0  0  0  0  0  0
   -2.0303    2.6929    1.8592 H   0  0  0  0  0  0  0  0  0  0  0  0
   -3.1082    2.5326   -0.5429 H   0  0  0  0  0  0  0  0  0  0  0  0
   -0.9058    1.9689   -2.3612 H   0  0  0  0  0  0  0  0  0  0  0  0
   -1.7748   -0.5252   -2.7054 H   0  0  0  0  0  0  0  0  0  0  0  0
   -3.9085   -0.5494   -0.9446 H   0  0  0  0  0  0  0  0  0  0  0  0
   -2.8273   -2.1378    0.1803 H   0  0  0  0  0  0  0  0  0  0  0  0
   -1.4588   -1.3731    1.9657 H   0  0  0  0  0  0  0  0  0  0  0  0
   -3.4152    0.4880    1.6650 H   0  0  0  0  0  0  0  0  0  0  0  0
   -0.1674   -0.2956   -1.2827 H   0  0  0  0  0  0  0  0  0  0  0  0
    3.0637   -2.2286    0.7322 H   0  0  0  0  0  0  0  0  0  0  0  0
    3.8809   -2.3365   -1.6428 H   0  0  0  0  0  0  0  0  0  0  0  0
    3.4371   -0.5859   -1.9005 H   0  0  0  0  0  0  0  0  0  0  0  0
    5.4300   -1.6475    0.2178 H   0  0  0  0  0  0  0  0  0  0  0  0
    4.9689    0.0932   -0.0314 H   0  0  0  0  0  0  0  0  0  0  0  0
  2  1  2  0  0  0  0
  3  2  1  0  0  0  0
  4  3  1  0  0  0  0
  5  4  1  0  0  0  0
  6  5  1  0  0  0  0
  7  6  1  0  0  0  0
  8  7  1  0  0  0  0
  9  8  1  0  0  0  0
 10  9  1  0  0  0  0
 11 10  1  0  0  0  0
 12 11  1  0  0  0  0
 12  4  1  0  0  0  0
 13 12  1  0  0  0  0
 13  6  1  0  0  0  0
 14 13  1  0  0  0  0
 14 10  1  0  0  0  0
 14  7  1  0  0  0  0
 15 14  1  0  0  0  0
 15  8  1  0  0  0  0
 15  4  1  0  0  0  0
 16  2  1  0  0  0  0
 17 16  1  0  0  0  0
 18 17  1  0  0  0  0
 18 16  1  0  0  0  0
  3 19  1  0  0  0  0
  5 20  1  0  0  0  0
  5 21  1  0  0  0  0
  6 22  1  0  0  0  0
  7 23  1  0  0  0  0
  8 24  1  0  0  0  0
  9 25  1  0  0  0  0
 10 26  1  0  0  0  0
 11 27  1  0  0  0  0
 12 28  1  0  0  0  0
 13 29  1  0  0  0  0
 15 30  1  0  0  0  0
 16 31  1  0  0  0  0
 17 32  1  0  0  0  0
 17 33  1  0  0  0  0
 18 34  1  0  0  0  0
 18 35  1  0  0  0  0
M  END
>  <energy>
141.29646553264502

$$$$
