C=CCN(CC(C)C)C(=O)OC(CN(CCC)C(=O)NCCC)(CC12CC3CC(CC(C3)C1)C2)C(O)CNC(=O)OC(C)(C)
                    3D

107109  0  0  0  0  0  0  0  0999 V2000
    0.3183   -1.5694    4.6597 C   0  0  0  0  0  0  0  0  0  0  0  0
    1.2354   -1.7791    3.7074 C   0  0  0  0  0  0  0  0  0  0  0  0
    1.0720   -2.7587    2.5781 C   0  0  0  0  0  0  0  0  0  0  0  0
    1.2229   -2.0805    1.2973 N   0  0  0  0  0  0  0  0  0  0  0  0
    2.5362   -1.6080    0.8366 C   0  0  0  0  0  0  0  0  0  0  0  0
    3.7765   -2.5267    0.9172 C   0  0  0  0  0  0  0  0  0  0  0  0
    4.4606   -2.5418    2.2826 C   0  0  0  0  0  0  0  0  0  0  0  0
    3.5354   -3.9317    0.3779 C   0  0  0  0  0  0  0  0  0  0  0  0
    0.0483   -1.5609    0.7374 C   0  0  0  0  0  0  0  0  0  0  0  0
   -1.0825   -1.9049    1.0510 O   0  0  0  0  0  0  0  0  0  0  0  0
    0.3251   -0.5750   -0.1476 O   0  0  0  0  0  0  0  0  0  0  0  0
   -0.6418    0.1964   -0.9422 C   0  0  0  0  0  0  0  0  0  0  0  0
   -1.0175   -0.6353   -2.2354 C   0  0  0  0  0  0  0  0  0  0  0  0
   -1.9623   -1.7391   -2.0446 N   0  0  0  0  0  0  0  0  0  0  0  0
   -3.3811   -1.4717   -2.3143 C   0  0  0  0  0  0  0  0  0  0  0  0
   -3.9142   -2.0771   -3.6234 C   0  0  0  0  0  0  0  0  0  0  0  0
   -3.2517   -1.5045   -4.8668 C   0  0  0  0  0  0  0  0  0  0  0  0
   -1.4646   -3.0241   -1.8387 C   0  0  0  0  0  0  0  0  0  0  0  0
   -0.3140   -3.3489   -2.1104 O   0  0  0  0  0  0  0  0  0  0  0  0
   -2.3964   -3.8951   -1.3328 N   0  0  0  0  0  0  0  0  0  0  0  0
   -2.1354   -5.3084   -1.1622 C   0  0  0  0  0  0  0  0  0  0  0  0
   -1.4333   -5.6885    0.1438 C   0  0  0  0  0  0  0  0  0  0  0  0
    0.0829   -5.5929    0.0775 C   0  0  0  0  0  0  0  0  0  0  0  0
   -1.9166    0.6453   -0.1398 C   0  0  0  0  0  0  0  0  0  0  0  0
   -1.9648    1.5106    1.1872 C   0  0  0  0  0  0  0  0  0  0  0  0
   -2.3636    2.9868    0.8680 C   0  0  0  0  0  0  0  0  0  0  0  0
   -2.6173    3.8030    2.1510 C   0  0  0  0  0  0  0  0  0  0  0  0
   -3.7496    3.1564    2.9657 C   0  0  0  0  0  0  0  0  0  0  0  0
   -3.3521    1.7251    3.3518 C   0  0  0  0  0  0  0  0  0  0  0  0
   -2.0670    1.7591    4.1893 C   0  0  0  0  0  0  0  0  0  0  0  0
   -0.9369    2.3818    3.3637 C   0  0  0  0  0  0  0  0  0  0  0  0
   -1.3322    3.8219    2.9930 C   0  0  0  0  0  0  0  0  0  0  0  0
   -0.7029    1.5574    2.0783 C   0  0  0  0  0  0  0  0  0  0  0  0
   -3.1153    0.9130    2.0690 C   0  0  0  0  0  0  0  0  0  0  0  0
    0.2576    1.3725   -1.4629 C   0  0  0  0  0  0  0  0  0  0  0  0
    1.0538    1.9067   -0.3884 O   0  0  0  0  0  0  0  0  0  0  0  0
   -0.4392    2.5472   -2.1763 C   0  0  0  0  0  0  0  0  0  0  0  0
    0.3865    3.7408   -2.0581 N   0  0  0  0  0  0  0  0  0  0  0  0
    1.5154    3.8410   -2.8260 C   0  0  0  0  0  0  0  0  0  0  0  0
    1.5852    3.5392   -4.0023 O   0  0  0  0  0  0  0  0  0  0  0  0
    2.5240    4.2143   -2.0079 O   0  0  0  0  0  0  0  0  0  0  0  0
    3.9230    4.1572   -2.3932 C   0  0  0  0  0  0  0  0  0  0  0  0
    4.2681    3.0534   -3.3995 C   0  0  0  0  0  0  0  0  0  0  0  0
    4.3395    5.5375   -2.8948 C   0  0  0  0  0  0  0  0  0  0  0  0
    4.6700    3.8479   -1.0866 C   0  0  0  0  0  0  0  0  0  0  0  0
   -0.6342   -2.0917    4.6688 H   0  0  0  0  0  0  0  0  0  0  0  0
    0.5017   -0.8493    5.4531 H   0  0  0  0  0  0  0  0  0  0  0  0
    2.1710   -1.2265    3.7467 H   0  0  0  0  0  0  0  0  0  0  0  0
    0.0943   -3.2461    2.6266 H   0  0  0  0  0  0  0  0  0  0  0  0
    1.8045   -3.5619    2.6654 H   0  0  0  0  0  0  0  0  0  0  0  0
    2.4347   -1.3584   -0.2268 H   0  0  0  0  0  0  0  0  0  0  0  0
    2.7394   -0.6590    1.3492 H   0  0  0  0  0  0  0  0  0  0  0  0
    4.5164   -2.0685    0.2429 H   0  0  0  0  0  0  0  0  0  0  0  0
    3.9201   -3.1247    3.0322 H   0  0  0  0  0  0  0  0  0  0  0  0
    4.5874   -1.5225    2.6646 H   0  0  0  0  0  0  0  0  0  0  0  0
    5.4634   -2.9757    2.1972 H   0  0  0  0  0  0  0  0  0  0  0  0
    2.8398   -4.5081    0.9916 H   0  0  0  0  0  0  0  0  0  0  0  0
    4.4753   -4.4934    0.3411 H   0  0  0  0  0  0  0  0  0  0  0  0
    3.1351   -3.8908   -0.6411 H   0  0  0  0  0  0  0  0  0  0  0  0
   -1.4364    0.0228   -3.0089 H   0  0  0  0  0  0  0  0  0  0  0  0
   -0.0936   -1.0560   -2.6557 H   0  0  0  0  0  0  0  0  0  0  0  0
   -3.9743   -1.8475   -1.4767 H   0  0  0  0  0  0  0  0  0  0  0  0
   -3.5335   -0.3881   -2.3388 H   0  0  0  0  0  0  0  0  0  0  0  0
   -3.8143   -3.1689   -3.6252 H   0  0  0  0  0  0  0  0  0  0  0  0
   -4.9890   -1.8597   -3.6814 H   0  0  0  0  0  0  0  0  0  0  0  0
   -2.2252   -1.8622   -4.9728 H   0  0  0  0  0  0  0  0  0  0  0  0
   -3.7996   -1.8048   -5.7662 H   0  0  0  0  0  0  0  0  0  0  0  0
   -3.2329   -0.4109   -4.8389 H   0  0  0  0  0  0  0  0  0  0  0  0
   -2.9902   -3.4682   -0.6313 H   0  0  0  0  0  0  0  0  0  0  0  0
   -1.5826   -5.6740   -2.0320 H   0  0  0  0  0  0  0  0  0  0  0  0
   -3.1209   -5.7843   -1.1746 H   0  0  0  0  0  0  0  0  0  0  0  0
   -1.8086   -5.0821    0.9759 H   0  0  0  0  0  0  0  0  0  0  0  0
   -1.6811   -6.7343    0.3687 H   0  0  0  0  0  0  0  0  0  0  0  0
    0.4111   -4.5611   -0.0644 H   0  0  0  0  0  0  0  0  0  0  0  0
    0.4788   -6.2044   -0.7429 H   0  0  0  0  0  0  0  0  0  0  0  0
    0.5232   -5.9559    1.0134 H   0  0  0  0  0  0  0  0  0  0  0  0
   -2.4488   -0.2830    0.0983 H   0  0  0  0  0  0  0  0  0  0  0  0
   -2.5915    1.1307   -0.8603 H   0  0  0  0  0  0  0  0  0  0  0  0
   -1.5604    3.4808    0.3110 H   0  0  0  0  0  0  0  0  0  0  0  0
   -3.2631    3.0184    0.2394 H   0  0  0  0  0  0  0  0  0  0  0  0
   -2.9025    4.8279    1.8886 H   0  0  0  0  0  0  0  0  0  0  0  0
   -3.9477    3.7488    3.8703 H   0  0  0  0  0  0  0  0  0  0  0  0
   -4.6797    3.1442    2.3807 H   0  0  0  0  0  0  0  0  0  0  0  0
   -4.1550    1.2664    3.9377 H   0  0  0  0  0  0  0  0  0  0  0  0
   -1.7926    0.7463    4.5071 H   0  0  0  0  0  0  0  0  0  0  0  0
   -2.2316    2.3471    5.1025 H   0  0  0  0  0  0  0  0  0  0  0  0
   -0.0186    2.4021    3.9573 H   0  0  0  0  0  0  0  0  0  0  0  0
   -0.5229    4.3075    2.4321 H   0  0  0  0  0  0  0  0  0  0  0  0
   -1.4914    4.4179    3.9023 H   0  0  0  0  0  0  0  0  0  0  0  0
    0.1177    2.0468    1.5611 H   0  0  0  0  0  0  0  0  0  0  0  0
   -0.3745    0.5507    2.3446 H   0  0  0  0  0  0  0  0  0  0  0  0
   -4.0489    0.8788    1.4908 H   0  0  0  0  0  0  0  0  0  0  0  0
   -2.8692   -0.1196    2.3474 H   0  0  0  0  0  0  0  0  0  0  0  0
    1.0070    0.9662   -2.1530 H   0  0  0  0  0  0  0  0  0  0  0  0
    1.4506    1.1380    0.0621 H   0  0  0  0  0  0  0  0  0  0  0  0
   -1.3907    2.7918   -1.7086 H   0  0  0  0  0  0  0  0  0  0  0  0
   -0.6361    2.3161   -3.2305 H   0  0  0  0  0  0  0  0  0  0  0  0
    0.6460    3.9143   -1.0882 H   0  0  0  0  0  0  0  0  0  0  0  0
    3.8893    3.2760   -4.4022 H   0  0  0  0  0  0  0  0  0  0  0  0
    5.3497    2.9277   -3.4954 H   0  0  0  0  0  0  0  0  0  0  0  0
    3.8375    2.0935   -3.0916 H   0  0  0  0  0  0  0  0  0  0  0  0
    4.1533    6.3025   -2.1310 H   0  0  0  0  0  0  0  0  0  0  0  0
    5.4024    5.5635   -3.1520 H   0  0  0  0  0  0  0  0  0  0  0  0
    3.7561    5.8331   -3.7733 H   0  0  0  0  0  0  0  0  0  0  0  0
    4.4187    4.5742   -0.3051 H   0  0  0  0  0  0  0  0  0  0  0  0
    5.7548    3.8525   -1.2308 H   0  0  0  0  0  0  0  0  0  0  0  0
    4.3782    2.8630   -0.7000 H   0  0  0  0  0  0  0  0  0  0  0  0
  2  1  2  0  0  0  0
  3  2  1  0  0  0  0
  4  3  1  0  0  0  0
  5  4  1  0  0  0  0
  6  5  1  0  0  0  0
  7  6  1  0  0  0  0
  8  6  1  0  0  0  0
  9  4  1  0  0  0  0
 10  9  2  0  0  0  0
 11  9  1  0  0  0  0
 12 11  1  0  0  0  0
 13 12  1  0  0  0  0
 14 13  1  0  0  0  0
 15 14  1  0  0  0  0
 16 15  1  0  0  0  0
 17 16  1  0  0  0  0
 18 14  1  0  0  0  0
 19 18  2  0  0  0  0
 20 18  1  0  0  0  0
 21 20  1  0  0  0  0
 22 21  1  0  0  0  0
 23 22  1  0  0  0  0
 24 12  1  0  0  0  0
 25 24  1  0  0  0  0
 26 25  1  0  0  0  0
 27 26  1  0  0  0  0
 28 27  1  0  0  0  0
 29 28  1  0  0  0  0
 30 29  1  0  0  0  0
 31 30  1  0  0  0  0
 32 31  1  0  0  0  0
 32 27  1  0  0  0  0
 33 31  1  0  0  0  0
 33 25  1  0  0  0  0
 34 29  1  0  0  0  0
 34 25  1  0  0  0  0
 35 12  1  0  0  0  0
 36 35  1  0  0  0  0
 37 35  1  0  0  0  0
 38 37  1  0  0  0  0
 39 38  1  0  0  0  0
 40 39  2  0  0  0  0
 41 39  1  0  0  0  0
 42 41  1  0  0  0  0
 43 42  1  0  0  0  0
 44 42  1  0  0  0  0
 45 42  1  0  0  0  0
  1 46  1  0  0  0  0
  1 47  1  0  0  0  0
  2 48  1  0  0  0  0
  3 49  1  0  0  0  0
  3 50  1  0  0  0  0
  5 51  1  0  0  0  0
  5 52  1  0  0  0  0
  6 53  1  0  0  0  0
  7 54  1  0  0  0  0
  7 55  1  0  0  0  0
  7 56  1  0  0  0  0
  8 57  1  0  0  0  0
  8 58  1  0  0  0  0
  8 59  1  0  0  0  0
 13 60  1  0  0  0  0
 13 61  1  0  0  0  0
 15 62  1  0  0  0  0
 15 63  1  0  0  0  0
 16 64  1  0  0  0  0
 16 65  1  0  0  0  0
 17 66  1  0  0  0  0
 17 67  1  0  0  0  0
 17 68  1  0  0  0  0
 20 69  1  0  0  0  0
 21 70  1  0  0  0  0
 21 71  1  0  0  0  0
 22 72  1  0  0  0  0
 22 73  1  0  0  0  0
 23 74  1  0  0  0  0
 23 75  1  0  0  0  0
 23 76  1  0  0  0  0
 24 77  1  0  0  0  0
 24 78  1  0  0  0  0
 26 79  1  0  0  0  0
 26 80  1  0  0  0  0
 27 81  1  0  0  0  0
 28 82  1  0  0  0  0
 28 83  1  0  0  0  0
 29 84  1  0  0  0  0
 30 85  1  0  0  0  0
 30 86  1  0  0  0  0
 31 87  1  0  0  0  0
 32 88  1  0  0  0  0
 32 89  1  0  0  0  0
 33 90  1  0  0  0  0
 33 91  1  0  0  0  0
 34 92  1  0  0  0  0
 34 93  1  0  0  0  0
 35 94  1  0  0  0  0
 36 95  1  0  0  0  0
 37 96  1  0  0  0  0
 37 97  1  0  0  0  0
 38 98  1  0  0  0  0
 43 99  1  0  0  0  0
 43100  1  0  0  0  0
 43101  1  0  0  0  0
 44102  1  0  0  0  0
 44103  1  0  0  0  0
 44104  1  0  0  0  0
 45105  1  0  0  0  0
 45106  1  0  0  0  0
 45107  1  0  0  0  0
M  END
>  <energy>
-73.508217178196759

$$$$
