CN(c1c(Br)cccc1C(=O)N=c1oc(C23C4CC(C42)C3(C)C)cs1)S(C)(=O)=O
                    3D

 50 54  0  0  0  0  0  0  0  0999 V2000
    2.9357    1.3399   -1.5525 C   0  0  0  0  0  0  0  0  0  0  0  0
    2.6984    0.9319   -0.1501 N   0  0  0  0  0  0  0  0  0  0  0  0
    3.6333   -0.0096    0.4386 C   0  0  0  0  0  0  0  0  0  0  0  0
    4.9836    0.2645    0.7091 C   0  0  0  0  0  0  0  0  0  0  0  0
    5.8969    1.8178    0.1106 Br  0  0  0  0  0  0  0  0  0  0  0  0
    5.7726   -0.6634    1.4110 C   0  0  0  0  0  0  0  0  0  0  0  0
    5.2460   -1.8833    1.8300 C   0  0  0  0  0  0  0  0  0  0  0  0
    3.9300   -2.1995    1.5199 C   0  0  0  0  0  0  0  0  0  0  0  0
    3.1431   -1.2755    0.8187 C   0  0  0  0  0  0  0  0  0  0  0  0
    1.7865   -1.7248    0.4393 C   0  0  0  0  0  0  0  0  0  0  0  0
    1.0085   -2.0459    1.3291 O   0  0  0  0  0  0  0  0  0  0  0  0
    1.5841   -1.8388   -0.9076 N   0  0  0  0  0  0  0  0  0  0  0  0
    0.3990   -1.6003   -1.3532 C   0  0  0  0  0  0  0  0  0  0  0  0
   -0.6672   -1.2011   -0.5935 O   0  0  0  0  0  0  0  0  0  0  0  0
   -1.7618   -1.0207   -1.4730 C   0  0  0  0  0  0  0  0  0  0  0  0
   -3.0221   -0.6302   -0.8746 C   0  0  0  0  0  0  0  0  0  0  0  0
   -4.1343   -1.6238   -0.6587 C   0  0  0  0  0  0  0  0  0  0  0  0
   -5.2893   -1.0806    0.1063 C   0  0  0  0  0  0  0  0  0  0  0  0
   -4.8440    0.3147   -0.5127 C   0  0  0  0  0  0  0  0  0  0  0  0
   -4.2956   -0.4945   -1.6023 C   0  0  0  0  0  0  0  0  0  0  0  0
   -3.3068    0.6974   -0.2040 C   0  0  0  0  0  0  0  0  0  0  0  0
   -2.9441    0.7737    1.2777 C   0  0  0  0  0  0  0  0  0  0  0  0
   -2.8268    1.9504   -0.9435 C   0  0  0  0  0  0  0  0  0  0  0  0
   -1.5327   -1.2460   -2.7741 C   0  0  0  0  0  0  0  0  0  0  0  0
    0.0837   -1.7486   -3.0749 S   0  0  0  0  0  0  0  0  0  0  0  0
    2.0778    2.1701    0.8442 S   0  0  0  0  0  0  0  0  0  0  0  0
    1.3363    1.2940    2.2080 C   0  0  0  0  0  0  0  0  0  0  0  0
    3.1712    2.9595    1.3666 O   0  0  0  0  0  0  0  0  0  0  0  0
    1.0033    2.8024    0.1048 O   0  0  0  0  0  0  0  0  0  0  0  0
    3.5077    0.5798   -2.0917 H   0  0  0  0  0  0  0  0  0  0  0  0
    3.4728    2.2916   -1.6136 H   0  0  0  0  0  0  0  0  0  0  0  0
    1.9728    1.4535   -2.0632 H   0  0  0  0  0  0  0  0  0  0  0  0
    6.8147   -0.4402    1.6269 H   0  0  0  0  0  0  0  0  0  0  0  0
    5.8639   -2.5916    2.3749 H   0  0  0  0  0  0  0  0  0  0  0  0
    3.5189   -3.1680    1.7988 H   0  0  0  0  0  0  0  0  0  0  0  0
   -4.1932   -2.6280   -1.0352 H   0  0  0  0  0  0  0  0  0  0  0  0
   -6.2730   -1.4341   -0.2160 H   0  0  0  0  0  0  0  0  0  0  0  0
   -5.2252   -1.1520    1.1923 H   0  0  0  0  0  0  0  0  0  0  0  0
   -5.5752    1.0932   -0.6739 H   0  0  0  0  0  0  0  0  0  0  0  0
   -4.5784   -0.5276   -2.6276 H   0  0  0  0  0  0  0  0  0  0  0  0
   -3.4461    1.6202    1.7552 H   0  0  0  0  0  0  0  0  0  0  0  0
   -3.2284   -0.1309    1.8229 H   0  0  0  0  0  0  0  0  0  0  0  0
   -1.8656    0.9055    1.4087 H   0  0  0  0  0  0  0  0  0  0  0  0
   -3.2941    2.8460   -0.5224 H   0  0  0  0  0  0  0  0  0  0  0  0
   -3.0754    1.9197   -2.0088 H   0  0  0  0  0  0  0  0  0  0  0  0
   -1.7412    2.0641   -0.8563 H   0  0  0  0  0  0  0  0  0  0  0  0
   -2.2657   -1.1490   -3.5649 H   0  0  0  0  0  0  0  0  0  0  0  0
    2.1129    0.7987    2.7905 H   0  0  0  0  0  0  0  0  0  0  0  0
    0.5999    0.5868    1.8288 H   0  0  0  0  0  0  0  0  0  0  0  0
    0.8325    2.0331    2.8356 H   0  0  0  0  0  0  0  0  0  0  0  0
  2  1  1  0  0  0  0
  3  2  1  0  0  0  0
  4  3  2  0  0  0  0
  5  4  1  0  0  0  0
  6  4  1  0  0  0  0
  7  6  2  0  0  0  0
  8  7  1  0  0  0  0
  9  8  2  0  0  0  0
  9  3  1  0  0  0  0
 10  9  1  0  0  0  0
 11 10  2  0  0  0  0
 12 10  1  0  0  0  0
 13 12  2  0  0  0  0
 14 13  1  0  0  0  0
 15 14  1  0  0  0  0
 16 15  1  0  0  0  0
 17 16  1  0  0  0  0
 18 17  1  0  0  0  0
 19 18  1  0  0  0  0
 20 19  1  0  0  0  0
 20 17  1  0  0  0  0
 20 16  1  0  0  0  0
 21 19  1  0  0  0  0
 21 16  1  0  0  0  0
 22 21  1  0  0  0  0
 23 21  1  0  0  0  0
 24 15  2  0  0  0  0
 25 24  1  0  0  0  0
 25 13  1  0  0  0  0
 26  2  1  0  0  0  0
 27 26  1  0  0  0  0
 28 26  2  0  0  0  0
 29 26  2  0  0  0  0
  1 30  1  0  0  0  0
  1 31  1  0  0  0  0
  1 32  1  0  0  0  0
  6 33  1  0  0  0  0
  7 34  1  0  0  0  0
  8 35  1  0  0  0  0
 17 36  1  0  0  0  0
 18 37  1  0  0  0  0
 18 38  1  0  0  0  0
 19 39  1  0  0  0  0
 20 40  1  0  0  0  0
 22 41  1  0  0  0  0
 22 42  1  0  0  0  0
 22 43  1  0  0  0  0
 23 44  1  0  0  0  0
 23 45  1  0  0  0  0
 23 46  1  0  0  0  0
 24 47  1  0  0  0  0
 27 48  1  0  0  0  0
 27 49  1  0  0  0  0
 27 50  1  0  0  0  0
M  END
>  <energy>
42.340640763897866

$$$$
