O=c1c2ccc3c4ccc5ccccc5c4[nH]c3c1nc[nH]2
                    3D

 33 37  0  0  0  0  0  0  0  0999 V2000
    3.4205    1.4892   -2.3029 O   0  0  0  0  0  0  0  0  0  0  0  0
    3.3058    1.1192   -1.1493 C   0  0  0  0  0  0  0  0  0  0  0  0
    4.1429    0.0982   -0.4590 C   0  0  0  0  0  0  0  0  0  0  0  0
    3.5827   -1.1318   -0.5029 C   0  0  0  0  0  0  0  0  0  0  0  0
    2.1796   -1.3541   -0.9087 C   0  0  0  0  0  0  0  0  0  0  0  0
    1.1508   -0.5329   -0.5694 C   0  0  0  0  0  0  0  0  0  0  0  0
   -0.2295   -0.9042   -0.5396 C   0  0  0  0  0  0  0  0  0  0  0  0
   -0.9537   -2.0602   -0.9026 C   0  0  0  0  0  0  0  0  0  0  0  0
   -2.3448   -2.0985   -0.7391 C   0  0  0  0  0  0  0  0  0  0  0  0
   -3.0433   -1.0105   -0.2060 C   0  0  0  0  0  0  0  0  0  0  0  0
   -4.4386   -1.0409   -0.0555 C   0  0  0  0  0  0  0  0  0  0  0  0
   -5.1253    0.0504    0.4841 C   0  0  0  0  0  0  0  0  0  0  0  0
   -4.4288    1.1880    0.8870 C   0  0  0  0  0  0  0  0  0  0  0  0
   -3.0415    1.2456    0.7454 C   0  0  0  0  0  0  0  0  0  0  0  0
   -2.3427    0.1518    0.1947 C   0  0  0  0  0  0  0  0  0  0  0  0
   -0.9334    0.1737    0.0176 C   0  0  0  0  0  0  0  0  0  0  0  0
   -0.0035    1.1495    0.3224 N   0  0  0  0  0  0  0  0  0  0  0  0
    1.2325    0.7862   -0.1325 C   0  0  0  0  0  0  0  0  0  0  0  0
    2.3198    1.5923   -0.1244 C   0  0  0  0  0  0  0  0  0  0  0  0
    2.8486    2.1355    1.0474 N   0  0  0  0  0  0  0  0  0  0  0  0
    4.0152    1.6330    1.3590 C   0  0  0  0  0  0  0  0  0  0  0  0
    4.6919    0.5921    0.7251 N   0  0  0  0  0  0  0  0  0  0  0  0
    3.9855   -1.9303    0.1170 H   0  0  0  0  0  0  0  0  0  0  0  0
    1.9741   -2.3622   -1.2628 H   0  0  0  0  0  0  0  0  0  0  0  0
   -0.4434   -2.9213   -1.3240 H   0  0  0  0  0  0  0  0  0  0  0  0
   -2.8784   -2.9976   -1.0395 H   0  0  0  0  0  0  0  0  0  0  0  0
   -5.0049   -1.9178   -0.3607 H   0  0  0  0  0  0  0  0  0  0  0  0
   -6.2065    0.0100    0.5895 H   0  0  0  0  0  0  0  0  0  0  0  0
   -4.9673    2.0330    1.3081 H   0  0  0  0  0  0  0  0  0  0  0  0
   -2.5215    2.1433    1.0644 H   0  0  0  0  0  0  0  0  0  0  0  0
   -0.2170    2.0471    0.7326 H   0  0  0  0  0  0  0  0  0  0  0  0
    4.5687    2.0230    2.2300 H   0  0  0  0  0  0  0  0  0  0  0  0
    5.7054    0.6011    0.7548 H   0  0  0  0  0  0  0  0  0  0  0  0
  2  1  2  0  0  0  0
  3  2  1  0  0  0  0
  4  3  2  0  0  0  0
  5  4  1  0  0  0  0
  6  5  2  0  0  0  0
  7  6  1  0  0  0  0
  8  7  1  0  0  0  0
  9  8  2  0  0  0  0
 10  9  1  0  0  0  0
 11 10  2  0  0  0  0
 12 11  1  0  0  0  0
 13 12  2  0  0  0  0
 14 13  1  0  0  0  0
 15 14  2  0  0  0  0
 15 10  1  0  0  0  0
 16 15  1  0  0  0  0
 16  7  2  0  0  0  0
 17 16  1  0  0  0  0
 18 17  1  0  0  0  0
 18  6  1  0  0  0  0
 19 18  2  0  0  0  0
 19  2  1  0  0  0  0
 20 19  1  0  0  0  0
 21 20  2  0  0  0  0
 22 21  1  0  0  0  0
 22  3  1  0  0  0  0
  4 23  1  0  0  0  0
  5 24  1  0  0  0  0
  8 25  1  0  0  0  0
  9 26  1  0  0  0  0
 11 27  1  0  0  0  0
 12 28  1  0  0  0  0
 13 29  1  0  0  0  0
 14 30  1  0  0  0  0
 17 31  1  0  0  0  0
 21 32  1  0  0  0  0
 22 33  1  0  0  0  0
M  END
>  <energy>
152.38183382379648

$$$$
