C=CC[N+]12CC(CN=C(O)NCCNC(C)=O)N(CC1=C(C)C[N+](C)(C)C)C(=O)C13CC4C(CCC41O)C32
                    3D

 84 88  0  0  0  0  0  0  0  0999 V2000
    1.0957    5.3461   -0.2739 C   0  0  0  0  0  0  0  0  0  0  0  0
    0.5326    4.5017   -1.1503 C   0  0  0  0  0  0  0  0  0  0  0  0
   -0.5434    3.5290   -0.8052 C   0  0  0  0  0  0  0  0  0  0  0  0
   -0.1997    2.0834   -0.3874 N   0  3  0  0  0  0  0  0  0  0  0  0
    0.7223    2.0547    0.8701 C   0  0  0  0  0  0  0  0  0  0  0  0
    0.7319    0.6730    1.5815 C   0  0  0  0  0  0  0  0  0  0  0  0
    2.1113    0.3639    2.2154 C   0  0  0  0  0  0  0  0  0  0  0  0
    2.3240   -1.0517    2.4875 N   0  0  0  0  0  0  0  0  0  0  0  0
    1.6919   -1.6019    3.4482 C   0  0  0  0  0  0  0  0  0  0  0  0
    0.8079   -0.9618    4.2287 O   0  0  0  0  0  0  0  0  0  0  0  0
    1.8634   -2.8904    3.8143 N   0  0  0  0  0  0  0  0  0  0  0  0
    0.8521   -3.8749    3.3992 C   0  0  0  0  0  0  0  0  0  0  0  0
    1.3430   -5.2790    3.7939 C   0  0  0  0  0  0  0  0  0  0  0  0
    2.5873   -5.6096    3.1167 N   0  0  0  0  0  0  0  0  0  0  0  0
    2.6270   -5.8493    1.7602 C   0  0  0  0  0  0  0  0  0  0  0  0
    4.0125   -5.9772    1.2002 C   0  0  0  0  0  0  0  0  0  0  0  0
    1.6159   -5.9333    1.0670 O   0  0  0  0  0  0  0  0  0  0  0  0
    0.1028   -0.3918    0.7619 N   0  0  0  0  0  0  0  0  0  0  0  0
   -1.3039   -0.1727    0.5278 C   0  0  0  0  0  0  0  0  0  0  0  0
   -1.4986    1.2922    0.0237 C   0  0  0  0  0  0  0  0  0  0  0  0
   -2.7836    1.7817    0.0305 C   0  0  0  0  0  0  0  0  0  0  0  0
   -3.2336    3.2094    0.3193 C   0  0  0  0  0  0  0  0  0  0  0  0
   -4.0151    0.8487   -0.0510 C   0  0  0  0  0  0  0  0  0  0  0  0
   -4.5676    0.6150   -1.4884 N   0  3  0  0  0  0  0  0  0  0  0  0
   -4.5742    1.8710   -2.3503 C   0  0  0  0  0  0  0  0  0  0  0  0
   -3.8030   -0.4957   -2.2091 C   0  0  0  0  0  0  0  0  0  0  0  0
   -6.0353    0.1430   -1.3858 C   0  0  0  0  0  0  0  0  0  0  0  0
    0.6824   -1.0090   -0.3455 C   0  0  0  0  0  0  0  0  0  0  0  0
    0.4326   -2.1994   -0.5624 O   0  0  0  0  0  0  0  0  0  0  0  0
    1.1649   -0.0744   -1.4370 C   0  0  0  0  0  0  0  0  0  0  0  0
    1.0381   -0.5870   -2.9394 C   0  0  0  0  0  0  0  0  0  0  0  0
    2.0192    0.5911   -3.1675 C   0  0  0  0  0  0  0  0  0  0  0  0
    1.4598    1.9103   -2.5572 C   0  0  0  0  0  0  0  0  0  0  0  0
    2.7406    2.4901   -1.9490 C   0  0  0  0  0  0  0  0  0  0  0  0
    3.4878    1.2989   -1.3790 C   0  0  0  0  0  0  0  0  0  0  0  0
    2.6930    0.1045   -1.8553 C   0  0  0  0  0  0  0  0  0  0  0  0
    3.5082   -1.0745   -1.9033 O   0  0  0  0  0  0  0  0  0  0  0  0
    0.4173    1.2754   -1.5960 C   0  0  0  0  0  0  0  0  0  0  0  0
    0.8398    5.3583    0.7816 H   0  0  0  0  0  0  0  0  0  0  0  0
    1.8496    6.0668   -0.5915 H   0  0  0  0  0  0  0  0  0  0  0  0
    0.8067    4.6026   -2.2005 H   0  0  0  0  0  0  0  0  0  0  0  0
   -1.2489    3.4678   -1.6458 H   0  0  0  0  0  0  0  0  0  0  0  0
   -1.0302    3.9751    0.0541 H   0  0  0  0  0  0  0  0  0  0  0  0
    0.3345    2.8070    1.5590 H   0  0  0  0  0  0  0  0  0  0  0  0
    1.7117    2.3709    0.5635 H   0  0  0  0  0  0  0  0  0  0  0  0
    0.0453    0.7766    2.4404 H   0  0  0  0  0  0  0  0  0  0  0  0
    2.9135    0.6646    1.5394 H   0  0  0  0  0  0  0  0  0  0  0  0
    2.2544    0.9729    3.1199 H   0  0  0  0  0  0  0  0  0  0  0  0
    0.5673   -1.5729    4.9444 H   0  0  0  0  0  0  0  0  0  0  0  0
    2.7244   -3.1865    3.3500 H   0  0  0  0  0  0  0  0  0  0  0  0
   -0.1076   -3.6514    3.8713 H   0  0  0  0  0  0  0  0  0  0  0  0
    0.7146   -3.7988    2.3145 H   0  0  0  0  0  0  0  0  0  0  0  0
    1.5506   -5.3272    4.8725 H   0  0  0  0  0  0  0  0  0  0  0  0
    0.5946   -6.0405    3.5512 H   0  0  0  0  0  0  0  0  0  0  0  0
    3.4536   -5.5188    3.6275 H   0  0  0  0  0  0  0  0  0  0  0  0
    4.7615   -5.6056    1.9036 H   0  0  0  0  0  0  0  0  0  0  0  0
    4.2178   -7.0251    0.9747 H   0  0  0  0  0  0  0  0  0  0  0  0
    4.0980   -5.3790    0.2902 H   0  0  0  0  0  0  0  0  0  0  0  0
   -1.8152   -0.3142    1.4890 H   0  0  0  0  0  0  0  0  0  0  0  0
   -1.6934   -0.8901   -0.1998 H   0  0  0  0  0  0  0  0  0  0  0  0
   -4.2414    3.2371    0.7586 H   0  0  0  0  0  0  0  0  0  0  0  0
   -3.2664    3.8310   -0.5789 H   0  0  0  0  0  0  0  0  0  0  0  0
   -2.6157    3.6682    1.0992 H   0  0  0  0  0  0  0  0  0  0  0  0
   -3.8283   -0.1455    0.3602 H   0  0  0  0  0  0  0  0  0  0  0  0
   -4.8480    1.2502    0.5357 H   0  0  0  0  0  0  0  0  0  0  0  0
   -5.1730    2.6368   -1.8503 H   0  0  0  0  0  0  0  0  0  0  0  0
   -3.5481    2.2139   -2.4954 H   0  0  0  0  0  0  0  0  0  0  0  0
   -5.0115    1.6316   -3.3248 H   0  0  0  0  0  0  0  0  0  0  0  0
   -4.2627   -0.6658   -3.1885 H   0  0  0  0  0  0  0  0  0  0  0  0
   -3.8614   -1.4044   -1.6042 H   0  0  0  0  0  0  0  0  0  0  0  0
   -2.7658   -0.1798   -2.3318 H   0  0  0  0  0  0  0  0  0  0  0  0
   -6.6173    0.9319   -0.8990 H   0  0  0  0  0  0  0  0  0  0  0  0
   -6.4125   -0.0295   -2.4009 H   0  0  0  0  0  0  0  0  0  0  0  0
   -6.0628   -0.7810   -0.8029 H   0  0  0  0  0  0  0  0  0  0  0  0
    0.0631   -0.5067   -3.4344 H   0  0  0  0  0  0  0  0  0  0  0  0
    1.4402   -1.5860   -3.1566 H   0  0  0  0  0  0  0  0  0  0  0  0
    2.6143    0.6278   -4.0840 H   0  0  0  0  0  0  0  0  0  0  0  0
    0.9935    2.5516   -3.3053 H   0  0  0  0  0  0  0  0  0  0  0  0
    3.3410    2.9594   -2.7412 H   0  0  0  0  0  0  0  0  0  0  0  0
    2.6059    3.2413   -1.1794 H   0  0  0  0  0  0  0  0  0  0  0  0
    4.5104    1.2922   -1.7785 H   0  0  0  0  0  0  0  0  0  0  0  0
    3.5671    1.3322   -0.2961 H   0  0  0  0  0  0  0  0  0  0  0  0
    4.2115   -0.9100   -2.5598 H   0  0  0  0  0  0  0  0  0  0  0  0
   -0.4822    1.1014   -2.2040 H   0  0  0  0  0  0  0  0  0  0  0  0
  2  1  2  0  0  0  0
  3  2  1  0  0  0  0
  4  3  1  0  0  0  0
  5  4  1  0  0  0  0
  6  5  1  0  0  0  0
  7  6  1  0  0  0  0
  8  7  1  0  0  0  0
  9  8  2  0  0  0  0
 10  9  1  0  0  0  0
 11  9  1  0  0  0  0
 12 11  1  0  0  0  0
 13 12  1  0  0  0  0
 14 13  1  0  0  0  0
 15 14  1  0  0  0  0
 16 15  1  0  0  0  0
 17 15  2  0  0  0  0
 18  6  1  0  0  0  0
 19 18  1  0  0  0  0
 20 19  1  0  0  0  0
 20  4  1  0  0  0  0
 21 20  2  0  0  0  0
 22 21  1  0  0  0  0
 23 21  1  0  0  0  0
 24 23  1  0  0  0  0
 25 24  1  0  0  0  0
 26 24  1  0  0  0  0
 27 24  1  0  0  0  0
 28 18  1  0  0  0  0
 29 28  2  0  0  0  0
 30 28  1  0  0  0  0
 31 30  1  0  0  0  0
 32 31  1  0  0  0  0
 33 32  1  0  0  0  0
 34 33  1  0  0  0  0
 35 34  1  0  0  0  0
 36 35  1  0  0  0  0
 36 32  1  0  0  0  0
 36 30  1  0  0  0  0
 37 36  1  0  0  0  0
 38 33  1  0  0  0  0
 38 30  1  0  0  0  0
 38  4  1  0  0  0  0
  1 39  1  0  0  0  0
  1 40  1  0  0  0  0
  2 41  1  0  0  0  0
  3 42  1  0  0  0  0
  3 43  1  0  0  0  0
  5 44  1  0  0  0  0
  5 45  1  0  0  0  0
  6 46  1  0  0  0  0
  7 47  1  0  0  0  0
  7 48  1  0  0  0  0
 10 49  1  0  0  0  0
 11 50  1  0  0  0  0
 12 51  1  0  0  0  0
 12 52  1  0  0  0  0
 13 53  1  0  0  0  0
 13 54  1  0  0  0  0
 14 55  1  0  0  0  0
 16 56  1  0  0  0  0
 16 57  1  0  0  0  0
 16 58  1  0  0  0  0
 19 59  1  0  0  0  0
 19 60  1  0  0  0  0
 22 61  1  0  0  0  0
 22 62  1  0  0  0  0
 22 63  1  0  0  0  0
 23 64  1  0  0  0  0
 23 65  1  0  0  0  0
 25 66  1  0  0  0  0
 25 67  1  0  0  0  0
 25 68  1  0  0  0  0
 26 69  1  0  0  0  0
 26 70  1  0  0  0  0
 26 71  1  0  0  0  0
 27 72  1  0  0  0  0
 27 73  1  0  0  0  0
 27 74  1  0  0  0  0
 31 75  1  0  0  0  0
 31 76  1  0  0  0  0
 32 77  1  0  0  0  0
 33 78  1  0  0  0  0
 34 79  1  0  0  0  0
 34 80  1  0  0  0  0
 35 81  1  0  0  0  0
 35 82  1  0  0  0  0
 37 83  1  0  0  0  0
 38 84  1  0  0  0  0
M  CHG  2   4   1  24   1
M  END
>  <energy>
143.21390200961224

$$$$
