N#[SH]=C(NN)NCCn1c2c(O)n1CCCCCC2
                    3D

 41 42  0  0  0  0  0  0  0  0999 V2000
   -3.0801   -0.1151   -2.6558 N   0  0  0  0  0  0  0  0  0  0  0  0
   -4.3231    0.0595   -2.1092 S   0  0  0  0  0  0  0  0  0  0  0  0
   -3.6607    0.4325   -0.4487 C   0  0  0  0  0  0  0  0  0  0  0  0
   -4.0639   -0.2204    0.6909 N   0  0  0  0  0  0  0  0  0  0  0  0
   -4.9855   -1.2696    0.6297 N   0  0  0  0  0  0  0  0  0  0  0  0
   -2.6739    1.3837   -0.3136 N   0  0  0  0  0  0  0  0  0  0  0  0
   -1.7587    1.5055    0.8248 C   0  0  0  0  0  0  0  0  0  0  0  0
   -0.9401    0.2301    1.0580 C   0  0  0  0  0  0  0  0  0  0  0  0
    0.4759    0.3149    0.7439 N   0  0  0  0  0  0  0  0  0  0  0  0
    1.1027    1.0137   -0.1518 C   0  0  0  0  0  0  0  0  0  0  0  0
    1.9406    1.4939    0.7911 C   0  0  0  0  0  0  0  0  0  0  0  0
    2.9875    2.2139    0.8569 O   0  0  0  0  0  0  0  0  0  0  0  0
    1.4088    0.6874    1.6773 N   0  0  0  0  0  0  0  0  0  0  0  0
    2.2241   -0.4299    2.2117 C   0  0  0  0  0  0  0  0  0  0  0  0
    2.3447   -1.6638    1.2689 C   0  0  0  0  0  0  0  0  0  0  0  0
    3.1121   -1.4352   -0.0561 C   0  0  0  0  0  0  0  0  0  0  0  0
    2.2496   -1.3997   -1.3520 C   0  0  0  0  0  0  0  0  0  0  0  0
    2.2334   -0.0405   -2.1017 C   0  0  0  0  0  0  0  0  0  0  0  0
    1.1328    0.9451   -1.6578 C   0  0  0  0  0  0  0  0  0  0  0  0
   -4.5354    1.3017   -2.4901 H   0  0  0  0  0  0  0  0  0  0  0  0
   -3.9847    0.2908    1.5708 H   0  0  0  0  0  0  0  0  0  0  0  0
   -4.6638   -1.9302   -0.0876 H   0  0  0  0  0  0  0  0  0  0  0  0
   -4.9320   -1.8047    1.5042 H   0  0  0  0  0  0  0  0  0  0  0  0
   -2.2835    1.6781   -1.2041 H   0  0  0  0  0  0  0  0  0  0  0  0
   -1.1398    2.3905    0.6402 H   0  0  0  0  0  0  0  0  0  0  0  0
   -2.3702    1.7278    1.7062 H   0  0  0  0  0  0  0  0  0  0  0  0
   -1.3478   -0.5986    0.4724 H   0  0  0  0  0  0  0  0  0  0  0  0
   -1.0465   -0.0609    2.1105 H   0  0  0  0  0  0  0  0  0  0  0  0
    3.0862    2.6807    0.0115 H   0  0  0  0  0  0  0  0  0  0  0  0
    1.7536   -0.7503    3.1483 H   0  0  0  0  0  0  0  0  0  0  0  0
    3.2260   -0.0736    2.4766 H   0  0  0  0  0  0  0  0  0  0  0  0
    1.3609   -2.1120    1.0744 H   0  0  0  0  0  0  0  0  0  0  0  0
    2.8934   -2.4200    1.8444 H   0  0  0  0  0  0  0  0  0  0  0  0
    3.7927   -2.2935   -0.1710 H   0  0  0  0  0  0  0  0  0  0  0  0
    3.7609   -0.5586    0.0087 H   0  0  0  0  0  0  0  0  0  0  0  0
    2.6984   -2.1344   -2.0412 H   0  0  0  0  0  0  0  0  0  0  0  0
    1.2277   -1.7570   -1.1704 H   0  0  0  0  0  0  0  0  0  0  0  0
    2.0816   -0.2358   -3.1714 H   0  0  0  0  0  0  0  0  0  0  0  0
    3.2196    0.4304   -2.0160 H   0  0  0  0  0  0  0  0  0  0  0  0
    1.3133    1.9336   -2.0949 H   0  0  0  0  0  0  0  0  0  0  0  0
    0.1633    0.5900   -2.0282 H   0  0  0  0  0  0  0  0  0  0  0  0
  2  1  3  0  0  0  0
  3  2  2  0  0  0  0
  4  3  1  0  0  0  0
  5  4  1  0  0  0  0
  6  3  1  0  0  0  0
  7  6  1  0  0  0  0
  8  7  1  0  0  0  0
  9  8  1  0  0  0  0
 10  9  1  0  0  0  0
 11 10  2  0  0  0  0
 12 11  1  0  0  0  0
 13 11  1  0  0  0  0
 13  9  1  0  0  0  0
 14 13  1  0  0  0  0
 15 14  1  0  0  0  0
 16 15  1  0  0  0  0
 17 16  1  0  0  0  0
 18 17  1  0  0  0  0
 19 18  1  0  0  0  0
 19 10  1  0  0  0  0
  2 20  1  0  0  0  0
  4 21  1  0  0  0  0
  5 22  1  0  0  0  0
  5 23  1  0  0  0  0
  6 24  1  0  0  0  0
  7 25  1  0  0  0  0
  7 26  1  0  0  0  0
  8 27  1  0  0  0  0
  8 28  1  0  0  0  0
 12 29  1  0  0  0  0
 14 30  1  0  0  0  0
 14 31  1  0  0  0  0
 15 32  1  0  0  0  0
 15 33  1  0  0  0  0
 16 34  1  0  0  0  0
 16 35  1  0  0  0  0
 17 36  1  0  0  0  0
 17 37  1  0  0  0  0
 18 38  1  0  0  0  0
 18 39  1  0  0  0  0
 19 40  1  0  0  0  0
 19 41  1  0  0  0  0
M  END
>  <energy>
117.07408324051201

$$$$
