COCC=CN(C)CCCN1C2=CCCC3c4[nH]c5c(c4CC(O)(CC4C6CCCCC6C4C5)C23)C(C(=O)O)C1CO
                    3D

 91 97  0  0  0  0  0  0  0  0999 V2000
   -6.3212    0.2336    0.0016 C   0  0  0  0  0  0  0  0  0  0  0  0
   -7.1933   -0.6901    0.6464 O   0  0  0  0  0  0  0  0  0  0  0  0
   -6.5602   -1.4531    1.6733 C   0  0  0  0  0  0  0  0  0  0  0  0
   -5.5655   -2.3900    1.0618 C   0  0  0  0  0  0  0  0  0  0  0  0
   -4.2758   -2.4223    1.4015 C   0  0  0  0  0  0  0  0  0  0  0  0
   -3.2365   -3.1077    0.7984 N   0  0  0  0  0  0  0  0  0  0  0  0
   -3.4612   -4.1905   -0.1557 C   0  0  0  0  0  0  0  0  0  0  0  0
   -1.8311   -2.7426    1.0406 C   0  0  0  0  0  0  0  0  0  0  0  0
   -1.3386   -1.7296    0.0055 C   0  0  0  0  0  0  0  0  0  0  0  0
   -1.9008   -0.3142    0.1851 C   0  0  0  0  0  0  0  0  0  0  0  0
   -0.9437    0.7327   -0.2945 N   0  0  0  0  0  0  0  0  0  0  0  0
   -1.1116    2.0498    0.2286 C   0  0  0  0  0  0  0  0  0  0  0  0
   -2.1458    2.8384   -0.1220 C   0  0  0  0  0  0  0  0  0  0  0  0
   -1.9692    4.3408   -0.1451 C   0  0  0  0  0  0  0  0  0  0  0  0
   -0.6155    4.7096   -0.7963 C   0  0  0  0  0  0  0  0  0  0  0  0
    0.5846    4.0350   -0.1019 C   0  0  0  0  0  0  0  0  0  0  0  0
    1.5147    3.2163   -1.0277 C   0  0  0  0  0  0  0  0  0  0  0  0
    2.8712    3.1460   -1.6003 N   0  0  0  0  0  0  0  0  0  0  0  0
    3.2340    1.6617   -1.5643 C   0  0  0  0  0  0  0  0  0  0  0  0
    1.9284    1.2770   -1.4531 C   0  0  0  0  0  0  0  0  0  0  0  0
    1.8233    2.0780   -0.3675 C   0  0  0  0  0  0  0  0  0  0  0  0
    2.3953    2.4097    0.9785 C   0  0  0  0  0  0  0  0  0  0  0  0
    1.2456    1.9695    1.8065 C   0  0  0  0  0  0  0  0  0  0  0  0
    1.4205    2.5087    3.1269 O   0  0  0  0  0  0  0  0  0  0  0  0
    1.4294    0.3965    1.8677 C   0  0  0  0  0  0  0  0  0  0  0  0
    2.9561   -0.0507    1.6803 C   0  0  0  0  0  0  0  0  0  0  0  0
    3.4004   -1.5119    1.9851 C   0  0  0  0  0  0  0  0  0  0  0  0
    2.3788   -2.6070    1.6905 C   0  0  0  0  0  0  0  0  0  0  0  0
    3.1173   -3.8686    1.2775 C   0  0  0  0  0  0  0  0  0  0  0  0
    3.9206   -3.5882    0.0021 C   0  0  0  0  0  0  0  0  0  0  0  0
    5.0459   -2.5764    0.2446 C   0  0  0  0  0  0  0  0  0  0  0  0
    4.5689   -1.3036    0.9401 C   0  0  0  0  0  0  0  0  0  0  0  0
    3.6607   -0.2760    0.1865 C   0  0  0  0  0  0  0  0  0  0  0  0
    4.3309    0.8713   -0.7659 C   0  0  0  0  0  0  0  0  0  0  0  0
   -0.0023    2.7963    1.0370 C   0  0  0  0  0  0  0  0  0  0  0  0
    0.9895    0.2900   -2.0634 C   0  0  0  0  0  0  0  0  0  0  0  0
    1.2649    0.1360   -3.5578 C   0  0  0  0  0  0  0  0  0  0  0  0
    1.2549   -0.9209   -4.1764 O   0  0  0  0  0  0  0  0  0  0  0  0
    1.5345    1.2870   -4.2195 O   0  0  0  0  0  0  0  0  0  0  0  0
   -0.5451    0.5279   -1.8016 C   0  0  0  0  0  0  0  0  0  0  0  0
   -1.2170    1.5253   -2.7790 C   0  0  0  0  0  0  0  0  0  0  0  0
   -1.4553    0.9161   -4.0539 O   0  0  0  0  0  0  0  0  0  0  0  0
   -5.9886    1.0012    0.7026 H   0  0  0  0  0  0  0  0  0  0  0  0
   -6.8760    0.7139   -0.8077 H   0  0  0  0  0  0  0  0  0  0  0  0
   -5.4591   -0.2701   -0.4418 H   0  0  0  0  0  0  0  0  0  0  0  0
   -7.3421   -2.0261    2.1821 H   0  0  0  0  0  0  0  0  0  0  0  0
   -6.0964   -0.7795    2.4085 H   0  0  0  0  0  0  0  0  0  0  0  0
   -5.9339   -2.9776    0.2279 H   0  0  0  0  0  0  0  0  0  0  0  0
   -3.9301   -1.8001    2.2237 H   0  0  0  0  0  0  0  0  0  0  0  0
   -4.2188   -3.9260   -0.9017 H   0  0  0  0  0  0  0  0  0  0  0  0
   -3.8009   -5.0869    0.3685 H   0  0  0  0  0  0  0  0  0  0  0  0
   -2.5553   -4.4403   -0.7194 H   0  0  0  0  0  0  0  0  0  0  0  0
   -1.2111   -3.6468    0.9596 H   0  0  0  0  0  0  0  0  0  0  0  0
   -1.6903   -2.3611    2.0601 H   0  0  0  0  0  0  0  0  0  0  0  0
   -1.5914   -2.0976   -0.9993 H   0  0  0  0  0  0  0  0  0  0  0  0
   -0.2477   -1.6995    0.0525 H   0  0  0  0  0  0  0  0  0  0  0  0
   -2.1087   -0.1261    1.2446 H   0  0  0  0  0  0  0  0  0  0  0  0
   -2.8415   -0.2217   -0.3653 H   0  0  0  0  0  0  0  0  0  0  0  0
   -3.0176    2.4459   -0.6380 H   0  0  0  0  0  0  0  0  0  0  0  0
   -2.7689    4.7967   -0.7392 H   0  0  0  0  0  0  0  0  0  0  0  0
   -2.0503    4.7463    0.8696 H   0  0  0  0  0  0  0  0  0  0  0  0
   -0.6350    4.4691   -1.8639 H   0  0  0  0  0  0  0  0  0  0  0  0
   -0.4926    5.7975   -0.7406 H   0  0  0  0  0  0  0  0  0  0  0  0
    1.1455    4.7711    0.4853 H   0  0  0  0  0  0  0  0  0  0  0  0
    3.5580    3.8890   -1.5614 H   0  0  0  0  0  0  0  0  0  0  0  0
    3.3891    2.0610    1.2074 H   0  0  0  0  0  0  0  0  0  0  0  0
    2.5824    3.4831    1.1390 H   0  0  0  0  0  0  0  0  0  0  0  0
    2.2132    2.0957    3.5133 H   0  0  0  0  0  0  0  0  0  0  0  0
    1.0889    0.0303    2.8440 H   0  0  0  0  0  0  0  0  0  0  0  0
    0.8607   -0.1083    1.1005 H   0  0  0  0  0  0  0  0  0  0  0  0
    3.5707    0.5717    2.3570 H   0  0  0  0  0  0  0  0  0  0  0  0
    3.7803   -1.6415    3.0111 H   0  0  0  0  0  0  0  0  0  0  0  0
    1.7553   -2.7934    2.5716 H   0  0  0  0  0  0  0  0  0  0  0  0
    1.7073   -2.3142    0.8782 H   0  0  0  0  0  0  0  0  0  0  0  0
    3.7813   -4.2122    2.0818 H   0  0  0  0  0  0  0  0  0  0  0  0
    2.3947   -4.6685    1.0920 H   0  0  0  0  0  0  0  0  0  0  0  0
    3.2422   -3.2263   -0.7801 H   0  0  0  0  0  0  0  0  0  0  0  0
    4.3520   -4.5249   -0.3673 H   0  0  0  0  0  0  0  0  0  0  0  0
    5.8111   -3.0544    0.8660 H   0  0  0  0  0  0  0  0  0  0  0  0
    5.5226   -2.3247   -0.7057 H   0  0  0  0  0  0  0  0  0  0  0  0
    5.4360   -0.7959    1.3914 H   0  0  0  0  0  0  0  0  0  0  0  0
    3.0033   -0.8584   -0.4725 H   0  0  0  0  0  0  0  0  0  0  0  0
    4.9831    0.3692   -1.4873 H   0  0  0  0  0  0  0  0  0  0  0  0
    4.9396    1.5431   -0.1554 H   0  0  0  0  0  0  0  0  0  0  0  0
   -0.4984    3.3612    1.8456 H   0  0  0  0  0  0  0  0  0  0  0  0
    1.2269   -0.6947   -1.6285 H   0  0  0  0  0  0  0  0  0  0  0  0
    1.7059    1.0051   -5.1399 H   0  0  0  0  0  0  0  0  0  0  0  0
   -0.9928   -0.4278   -2.1030 H   0  0  0  0  0  0  0  0  0  0  0  0
   -2.2073    1.8032   -2.4262 H   0  0  0  0  0  0  0  0  0  0  0  0
   -0.6172    2.4292   -2.9261 H   0  0  0  0  0  0  0  0  0  0  0  0
   -2.0588    1.5111   -4.5340 H   0  0  0  0  0  0  0  0  0  0  0  0
  2  1  1  0  0  0  0
  3  2  1  0  0  0  0
  4  3  1  0  0  0  0
  5  4  2  0  0  0  0
  6  5  1  0  0  0  0
  7  6  1  0  0  0  0
  8  6  1  0  0  0  0
  9  8  1  0  0  0  0
 10  9  1  0  0  0  0
 11 10  1  0  0  0  0
 12 11  1  0  0  0  0
 13 12  2  0  0  0  0
 14 13  1  0  0  0  0
 15 14  1  0  0  0  0
 16 15  1  0  0  0  0
 17 16  1  0  0  0  0
 18 17  1  0  0  0  0
 19 18  1  0  0  0  0
 20 19  2  0  0  0  0
 21 20  1  0  0  0  0
 21 17  2  0  0  0  0
 22 21  1  0  0  0  0
 23 22  1  0  0  0  0
 24 23  1  0  0  0  0
 25 23  1  0  0  0  0
 26 25  1  0  0  0  0
 27 26  1  0  0  0  0
 28 27  1  0  0  0  0
 29 28  1  0  0  0  0
 30 29  1  0  0  0  0
 31 30  1  0  0  0  0
 32 31  1  0  0  0  0
 32 27  1  0  0  0  0
 33 32  1  0  0  0  0
 33 26  1  0  0  0  0
 34 33  1  0  0  0  0
 34 19  1  0  0  0  0
 35 23  1  0  0  0  0
 35 12  1  0  0  0  0
 35 16  1  0  0  0  0
 36 20  1  0  0  0  0
 37 36  1  0  0  0  0
 38 37  2  0  0  0  0
 39 37  1  0  0  0  0
 40 36  1  0  0  0  0
 40 11  1  0  0  0  0
 41 40  1  0  0  0  0
 42 41  1  0  0  0  0
  1 43  1  0  0  0  0
  1 44  1  0  0  0  0
  1 45  1  0  0  0  0
  3 46  1  0  0  0  0
  3 47  1  0  0  0  0
  4 48  1  0  0  0  0
  5 49  1  0  0  0  0
  7 50  1  0  0  0  0
  7 51  1  0  0  0  0
  7 52  1  0  0  0  0
  8 53  1  0  0  0  0
  8 54  1  0  0  0  0
  9 55  1  0  0  0  0
  9 56  1  0  0  0  0
 10 57  1  0  0  0  0
 10 58  1  0  0  0  0
 13 59  1  0  0  0  0
 14 60  1  0  0  0  0
 14 61  1  0  0  0  0
 15 62  1  0  0  0  0
 15 63  1  0  0  0  0
 16 64  1  0  0  0  0
 18 65  1  0  0  0  0
 22 66  1  0  0  0  0
 22 67  1  0  0  0  0
 24 68  1  0  0  0  0
 25 69  1  0  0  0  0
 25 70  1  0  0  0  0
 26 71  1  0  0  0  0
 27 72  1  0  0  0  0
 28 73  1  0  0  0  0
 28 74  1  0  0  0  0
 29 75  1  0  0  0  0
 29 76  1  0  0  0  0
 30 77  1  0  0  0  0
 30 78  1  0  0  0  0
 31 79  1  0  0  0  0
 31 80  1  0  0  0  0
 32 81  1  0  0  0  0
 33 82  1  0  0  0  0
 34 83  1  0  0  0  0
 34 84  1  0  0  0  0
 35 85  1  0  0  0  0
 36 86  1  0  0  0  0
 39 87  1  0  0  0  0
 40 88  1  0  0  0  0
 41 89  1  0  0  0  0
 41 90  1  0  0  0  0
 42 91  1  0  0  0  0
M  END
>  <energy>
426.57878622091727

$$$$
