C=C=CC(C1NCC2C34CCC5C6C1(OC)C(O3)(OC(C)(C(C)(C)O)OC4)C526)N1CCOCC1
                    3D

 72 78  0  0  0  0  0  0  0  0999 V2000
    2.0750    0.0669    3.6826 C   0  0  0  0  0  0  0  0  0  0  0  0
    2.5633   -0.3803    2.5693 C   0  0  0  0  0  0  0  0  0  0  0  0
    3.1377   -0.8772    1.5105 C   0  0  0  0  0  0  0  0  0  0  0  0
    2.7550   -0.7430    0.0450 C   0  0  0  0  0  0  0  0  0  0  0  0
    1.5690   -1.7107   -0.4376 C   0  0  0  0  0  0  0  0  0  0  0  0
    1.0380   -2.6665    0.6351 N   0  0  0  0  0  0  0  0  0  0  0  0
   -0.2600   -2.2999    1.2562 C   0  0  0  0  0  0  0  0  0  0  0  0
   -1.4505   -2.5566    0.3054 C   0  0  0  0  0  0  0  0  0  0  0  0
   -2.7599   -1.6950    0.1295 C   0  0  0  0  0  0  0  0  0  0  0  0
   -3.7480   -2.6324   -0.6222 C   0  0  0  0  0  0  0  0  0  0  0  0
   -2.9544   -3.4633   -1.7260 C   0  0  0  0  0  0  0  0  0  0  0  0
   -1.7823   -2.6484   -2.2297 C   0  0  0  0  0  0  0  0  0  0  0  0
   -0.2109   -2.5050   -2.0639 C   0  0  0  0  0  0  0  0  0  0  0  0
    0.5026   -1.1951   -1.5492 C   0  0  0  0  0  0  0  0  0  0  0  0
    1.1753   -0.4516   -2.6088 O   0  0  0  0  0  0  0  0  0  0  0  0
    0.4333    0.5393   -3.2973 C   0  0  0  0  0  0  0  0  0  0  0  0
   -0.9649   -0.5736   -0.9378 C   0  0  0  0  0  0  0  0  0  0  0  0
   -2.4103   -0.6375   -0.9705 O   0  0  0  0  0  0  0  0  0  0  0  0
   -0.6948    0.2424    0.2390 O   0  0  0  0  0  0  0  0  0  0  0  0
   -1.7245    1.0547    0.8958 C   0  0  0  0  0  0  0  0  0  0  0  0
   -1.1428    1.3325    2.2950 C   0  0  0  0  0  0  0  0  0  0  0  0
   -1.9366    2.4369    0.1257 C   0  0  0  0  0  0  0  0  0  0  0  0
   -2.7863    3.4418    0.9269 C   0  0  0  0  0  0  0  0  0  0  0  0
   -2.6239    2.2686   -1.2377 C   0  0  0  0  0  0  0  0  0  0  0  0
   -0.6743    3.0768   -0.1208 O   0  0  0  0  0  0  0  0  0  0  0  0
   -3.0403    0.4977    1.1190 O   0  0  0  0  0  0  0  0  0  0  0  0
   -3.1727   -0.9036    1.3526 C   0  0  0  0  0  0  0  0  0  0  0  0
   -1.0800   -2.0820   -1.0087 C   0  0  0  0  0  0  0  0  0  0  0  0
    2.8946    0.5880   -0.5694 N   0  0  0  0  0  0  0  0  0  0  0  0
    2.2751    1.7219    0.1220 C   0  0  0  0  0  0  0  0  0  0  0  0
    3.1784    2.5674    1.0428 C   0  0  0  0  0  0  0  0  0  0  0  0
    4.4275    2.8996    0.4258 O   0  0  0  0  0  0  0  0  0  0  0  0
    5.0947    1.6971    0.0277 C   0  0  0  0  0  0  0  0  0  0  0  0
    4.2558    0.9487   -1.0173 C   0  0  0  0  0  0  0  0  0  0  0  0
    1.5405    1.0070    3.7218 H   0  0  0  0  0  0  0  0  0  0  0  0
    2.2447   -0.4693    4.6095 H   0  0  0  0  0  0  0  0  0  0  0  0
    3.8868   -1.6429    1.7011 H   0  0  0  0  0  0  0  0  0  0  0  0
    3.6048   -1.2905   -0.4005 H   0  0  0  0  0  0  0  0  0  0  0  0
    2.1445   -2.4264   -1.0526 H   0  0  0  0  0  0  0  0  0  0  0  0
    0.9345   -3.5848    0.2021 H   0  0  0  0  0  0  0  0  0  0  0  0
   -0.3981   -2.9512    2.1291 H   0  0  0  0  0  0  0  0  0  0  0  0
   -0.2041   -1.3094    1.6917 H   0  0  0  0  0  0  0  0  0  0  0  0
   -1.6677   -3.6274    0.3811 H   0  0  0  0  0  0  0  0  0  0  0  0
   -4.5086   -2.0268   -1.1295 H   0  0  0  0  0  0  0  0  0  0  0  0
   -4.2511   -3.3259    0.0591 H   0  0  0  0  0  0  0  0  0  0  0  0
   -3.6379   -3.6977   -2.5508 H   0  0  0  0  0  0  0  0  0  0  0  0
   -2.6162   -4.4249   -1.3221 H   0  0  0  0  0  0  0  0  0  0  0  0
   -2.1740   -1.9659   -2.9908 H   0  0  0  0  0  0  0  0  0  0  0  0
    0.0681   -2.4166   -3.1054 H   0  0  0  0  0  0  0  0  0  0  0  0
    0.2668    1.3971   -2.6427 H   0  0  0  0  0  0  0  0  0  0  0  0
    1.0185    0.8733   -4.1582 H   0  0  0  0  0  0  0  0  0  0  0  0
   -0.5177    0.1373   -3.6576 H   0  0  0  0  0  0  0  0  0  0  0  0
   -0.2031    1.8866    2.2379 H   0  0  0  0  0  0  0  0  0  0  0  0
   -1.8398    1.8786    2.9378 H   0  0  0  0  0  0  0  0  0  0  0  0
   -0.9255    0.4002    2.8240 H   0  0  0  0  0  0  0  0  0  0  0  0
   -3.7794    3.0453    1.1601 H   0  0  0  0  0  0  0  0  0  0  0  0
   -2.9193    4.3735    0.3631 H   0  0  0  0  0  0  0  0  0  0  0  0
   -2.2949    3.7426    1.8569 H   0  0  0  0  0  0  0  0  0  0  0  0
   -2.0091    1.6936   -1.9331 H   0  0  0  0  0  0  0  0  0  0  0  0
   -2.7660    3.2432   -1.7211 H   0  0  0  0  0  0  0  0  0  0  0  0
   -3.6050    1.7919   -1.1446 H   0  0  0  0  0  0  0  0  0  0  0  0
   -0.1777    2.4600   -0.6873 H   0  0  0  0  0  0  0  0  0  0  0  0
   -4.2305   -1.0905    1.5670 H   0  0  0  0  0  0  0  0  0  0  0  0
   -2.6249   -1.1920    2.2541 H   0  0  0  0  0  0  0  0  0  0  0  0
    1.9308    2.3941   -0.6722 H   0  0  0  0  0  0  0  0  0  0  0  0
    1.3862    1.4110    0.6671 H   0  0  0  0  0  0  0  0  0  0  0  0
    3.3903    2.0720    1.9913 H   0  0  0  0  0  0  0  0  0  0  0  0
    2.6687    3.5064    1.2828 H   0  0  0  0  0  0  0  0  0  0  0  0
    5.3117    1.0813    0.9086 H   0  0  0  0  0  0  0  0  0  0  0  0
    6.0547    1.9885   -0.4101 H   0  0  0  0  0  0  0  0  0  0  0  0
    4.8080    0.0802   -1.3974 H   0  0  0  0  0  0  0  0  0  0  0  0
    4.1337    1.6198   -1.8795 H   0  0  0  0  0  0  0  0  0  0  0  0
  2  1  2  0  0  0  0
  3  2  2  0  0  0  0
  4  3  1  0  0  0  0
  5  4  1  0  0  0  0
  6  5  1  0  0  0  0
  7  6  1  0  0  0  0
  8  7  1  0  0  0  0
  9  8  1  0  0  0  0
 10  9  1  0  0  0  0
 11 10  1  0  0  0  0
 12 11  1  0  0  0  0
 13 12  1  0  0  0  0
 14 13  1  0  0  0  0
 14  5  1  0  0  0  0
 15 14  1  0  0  0  0
 16 15  1  0  0  0  0
 17 14  1  0  0  0  0
 18 17  1  0  0  0  0
 18  9  1  0  0  0  0
 19 17  1  0  0  0  0
 20 19  1  0  0  0  0
 21 20  1  0  0  0  0
 22 20  1  0  0  0  0
 23 22  1  0  0  0  0
 24 22  1  0  0  0  0
 25 22  1  0  0  0  0
 26 20  1  0  0  0  0
 27 26  1  0  0  0  0
 27  9  1  0  0  0  0
 28 17  1  0  0  0  0
 28 12  1  0  0  0  0
 28  8  1  0  0  0  0
 28 13  1  0  0  0  0
 29  4  1  0  0  0  0
 30 29  1  0  0  0  0
 31 30  1  0  0  0  0
 32 31  1  0  0  0  0
 33 32  1  0  0  0  0
 34 33  1  0  0  0  0
 34 29  1  0  0  0  0
  1 35  1  0  0  0  0
  1 36  1  0  0  0  0
  3 37  1  0  0  0  0
  4 38  1  0  0  0  0
  5 39  1  0  0  0  0
  6 40  1  0  0  0  0
  7 41  1  0  0  0  0
  7 42  1  0  0  0  0
  8 43  1  0  0  0  0
 10 44  1  0  0  0  0
 10 45  1  0  0  0  0
 11 46  1  0  0  0  0
 11 47  1  0  0  0  0
 12 48  1  0  0  0  0
 13 49  1  0  0  0  0
 16 50  1  0  0  0  0
 16 51  1  0  0  0  0
 16 52  1  0  0  0  0
 21 53  1  0  0  0  0
 21 54  1  0  0  0  0
 21 55  1  0  0  0  0
 23 56  1  0  0  0  0
 23 57  1  0  0  0  0
 23 58  1  0  0  0  0
 24 59  1  0  0  0  0
 24 60  1  0  0  0  0
 24 61  1  0  0  0  0
 25 62  1  0  0  0  0
 27 63  1  0  0  0  0
 27 64  1  0  0  0  0
 30 65  1  0  0  0  0
 30 66  1  0  0  0  0
 31 67  1  0  0  0  0
 31 68  1  0  0  0  0
 33 69  1  0  0  0  0
 33 70  1  0  0  0  0
 34 71  1  0  0  0  0
 34 72  1  0  0  0  0
M  END
>  <energy>
468.2554753017555

$$$$
