Cn1ccc(=N)c2ccc3cc4c(n3c21)-c1ccccc1CC4=NNC(N)=S
                    3D

 46 50  0  0  0  0  0  0  0  0999 V2000
   -0.8690    0.9946   -1.9964 C   0  0  0  0  0  0  0  0  0  0  0  0
   -2.1648    0.5624   -1.4402 N   0  0  0  0  0  0  0  0  0  0  0  0
   -3.2896    0.8534   -2.2074 C   0  0  0  0  0  0  0  0  0  0  0  0
   -4.4233    0.1530   -2.2133 C   0  0  0  0  0  0  0  0  0  0  0  0
   -4.4953   -1.0558   -1.3596 C   0  0  0  0  0  0  0  0  0  0  0  0
   -5.5125   -1.8590   -1.4149 N   0  0  0  0  0  0  0  0  0  0  0  0
   -3.3396   -1.3048   -0.4404 C   0  0  0  0  0  0  0  0  0  0  0  0
   -3.3418   -2.4813    0.4167 C   0  0  0  0  0  0  0  0  0  0  0  0
   -2.2471   -2.8628    1.0930 C   0  0  0  0  0  0  0  0  0  0  0  0
   -1.0888   -2.0453    1.0374 C   0  0  0  0  0  0  0  0  0  0  0  0
    0.2452   -2.2455    1.3258 C   0  0  0  0  0  0  0  0  0  0  0  0
    0.8864   -1.0001    1.1215 C   0  0  0  0  0  0  0  0  0  0  0  0
   -0.1023   -0.0598    0.8878 C   0  0  0  0  0  0  0  0  0  0  0  0
   -1.2035   -0.7849    0.4326 N   0  0  0  0  0  0  0  0  0  0  0  0
   -2.2635   -0.4737   -0.4725 C   0  0  0  0  0  0  0  0  0  0  0  0
    0.1084    1.3805    1.0081 C   0  0  0  0  0  0  0  0  0  0  0  0
   -0.9427    2.3018    1.0995 C   0  0  0  0  0  0  0  0  0  0  0  0
   -0.6804    3.6635    1.2590 C   0  0  0  0  0  0  0  0  0  0  0  0
    0.6316    4.1169    1.3492 C   0  0  0  0  0  0  0  0  0  0  0  0
    1.6884    3.2083    1.2871 C   0  0  0  0  0  0  0  0  0  0  0  0
    1.4399    1.8353    1.1330 C   0  0  0  0  0  0  0  0  0  0  0  0
    2.6185    0.8784    1.0804 C   0  0  0  0  0  0  0  0  0  0  0  0
    2.2805   -0.6099    1.1069 C   0  0  0  0  0  0  0  0  0  0  0  0
    3.1255   -1.5871    0.9590 N   0  0  0  0  0  0  0  0  0  0  0  0
    4.4289   -1.3106    0.6642 N   0  0  0  0  0  0  0  0  0  0  0  0
    5.1812   -2.2597    0.0029 C   0  0  0  0  0  0  0  0  0  0  0  0
    6.2795   -1.7390   -0.6268 N   0  0  0  0  0  0  0  0  0  0  0  0
    4.8785   -3.8916   -0.1196 S   0  0  0  0  0  0  0  0  0  0  0  0
   -0.6258    2.0111   -1.6727 H   0  0  0  0  0  0  0  0  0  0  0  0
   -0.0458    0.3203   -1.7424 H   0  0  0  0  0  0  0  0  0  0  0  0
   -0.9047    1.0078   -3.0933 H   0  0  0  0  0  0  0  0  0  0  0  0
   -3.1649    1.7007   -2.8791 H   0  0  0  0  0  0  0  0  0  0  0  0
   -5.2546    0.3929   -2.8570 H   0  0  0  0  0  0  0  0  0  0  0  0
   -6.1854   -1.5418   -2.1146 H   0  0  0  0  0  0  0  0  0  0  0  0
   -4.2480   -3.0813    0.4391 H   0  0  0  0  0  0  0  0  0  0  0  0
   -2.2456   -3.7808    1.6743 H   0  0  0  0  0  0  0  0  0  0  0  0
    0.7091   -3.1769    1.6270 H   0  0  0  0  0  0  0  0  0  0  0  0
   -1.9777    1.9721    1.0478 H   0  0  0  0  0  0  0  0  0  0  0  0
   -1.5051    4.3690    1.3246 H   0  0  0  0  0  0  0  0  0  0  0  0
    0.8307    5.1778    1.4810 H   0  0  0  0  0  0  0  0  0  0  0  0
    2.7060    3.5794    1.3710 H   0  0  0  0  0  0  0  0  0  0  0  0
    3.1546    1.0814    0.1474 H   0  0  0  0  0  0  0  0  0  0  0  0
    3.2890    1.0820    1.9228 H   0  0  0  0  0  0  0  0  0  0  0  0
    4.7234   -0.3468    0.5950 H   0  0  0  0  0  0  0  0  0  0  0  0
    6.6560   -2.3696   -1.3267 H   0  0  0  0  0  0  0  0  0  0  0  0
    6.2606   -0.7745   -0.9170 H   0  0  0  0  0  0  0  0  0  0  0  0
  2  1  1  0  0  0  0
  3  2  1  0  0  0  0
  4  3  2  0  0  0  0
  5  4  1  0  0  0  0
  6  5  2  0  0  0  0
  7  5  1  0  0  0  0
  8  7  1  0  0  0  0
  9  8  2  0  0  0  0
 10  9  1  0  0  0  0
 11 10  2  0  0  0  0
 12 11  1  0  0  0  0
 13 12  2  0  0  0  0
 14 13  1  0  0  0  0
 14 10  1  0  0  0  0
 15 14  1  0  0  0  0
 15  7  2  0  0  0  0
 15  2  1  0  0  0  0
 16 13  1  0  0  0  0
 17 16  2  0  0  0  0
 18 17  1  0  0  0  0
 19 18  2  0  0  0  0
 20 19  1  0  0  0  0
 21 20  2  0  0  0  0
 21 16  1  0  0  0  0
 22 21  1  0  0  0  0
 23 22  1  0  0  0  0
 23 12  1  0  0  0  0
 24 23  2  0  0  0  0
 25 24  1  0  0  0  0
 26 25  1  0  0  0  0
 27 26  1  0  0  0  0
 28 26  2  0  0  0  0
  1 29  1  0  0  0  0
  1 30  1  0  0  0  0
  1 31  1  0  0  0  0
  3 32  1  0  0  0  0
  4 33  1  0  0  0  0
  6 34  1  0  0  0  0
  8 35  1  0  0  0  0
  9 36  1  0  0  0  0
 11 37  1  0  0  0  0
 17 38  1  0  0  0  0
 18 39  1  0  0  0  0
 19 40  1  0  0  0  0
 20 41  1  0  0  0  0
 22 42  1  0  0  0  0
 22 43  1  0  0  0  0
 25 44  1  0  0  0  0
 27 45  1  0  0  0  0
 27 46  1  0  0  0  0
M  END
>  <energy>
119.74779226523844

$$$$
