C[N+](C)(C)CCNC(=O)C1C2CCCC3C4C1C2C1C3C2(C(=O)O)C(O)C4C12C(=O)O
                    3D

 64 69  0  0  0  0  0  0  0  0999 V2000
   -4.0128    2.1763   -0.6660 C   0  0  0  0  0  0  0  0  0  0  0  0
   -4.3882    0.7586   -0.2369 N   0  3  0  0  0  0  0  0  0  0  0  0
   -5.8273    0.7962    0.2948 C   0  0  0  0  0  0  0  0  0  0  0  0
   -3.4743    0.3276    0.9027 C   0  0  0  0  0  0  0  0  0  0  0  0
   -4.3504   -0.2194   -1.4428 C   0  0  0  0  0  0  0  0  0  0  0  0
   -2.9619   -0.4606   -2.0599 C   0  0  0  0  0  0  0  0  0  0  0  0
   -2.0989   -1.2563   -1.2065 N   0  0  0  0  0  0  0  0  0  0  0  0
   -0.7353   -1.3227   -1.4429 C   0  0  0  0  0  0  0  0  0  0  0  0
   -0.2420   -0.7643   -2.4169 O   0  0  0  0  0  0  0  0  0  0  0  0
    0.0121   -2.0791   -0.3343 C   0  0  0  0  0  0  0  0  0  0  0  0
    1.4132   -2.7790   -0.5087 C   0  0  0  0  0  0  0  0  0  0  0  0
    1.8356   -3.6586    0.7751 C   0  0  0  0  0  0  0  0  0  0  0  0
    2.8181   -2.9869    1.8970 C   0  0  0  0  0  0  0  0  0  0  0  0
    2.7693   -1.4791    2.5514 C   0  0  0  0  0  0  0  0  0  0  0  0
    2.4093   -0.0267    1.8846 C   0  0  0  0  0  0  0  0  0  0  0  0
    0.9363    0.0861    1.3949 C   0  0  0  0  0  0  0  0  0  0  0  0
    0.7566   -1.2340    0.7297 C   0  0  0  0  0  0  0  0  0  0  0  0
    2.0727   -1.5242   -0.1434 C   0  0  0  0  0  0  0  0  0  0  0  0
    2.6686   -0.2994   -0.7220 C   0  0  0  0  0  0  0  0  0  0  0  0
    3.2443    0.3877    0.6141 C   0  0  0  0  0  0  0  0  0  0  0  0
    2.8179    1.7604   -0.0378 C   0  0  0  0  0  0  0  0  0  0  0  0
    3.8294    2.6919   -0.7521 C   0  0  0  0  0  0  0  0  0  0  0  0
    3.5515    3.4305   -1.6927 O   0  0  0  0  0  0  0  0  0  0  0  0
    5.0916    2.6900   -0.2431 O   0  0  0  0  0  0  0  0  0  0  0  0
    1.5397    2.4266    0.5710 C   0  0  0  0  0  0  0  0  0  0  0  0
    1.5700    2.8336    1.9488 O   0  0  0  0  0  0  0  0  0  0  0  0
    0.7879    1.1046    0.2561 C   0  0  0  0  0  0  0  0  0  0  0  0
    1.8039    0.9283   -0.9168 C   0  0  0  0  0  0  0  0  0  0  0  0
    1.5401    1.4134   -2.3622 C   0  0  0  0  0  0  0  0  0  0  0  0
    2.0885    1.0346   -3.3868 O   0  0  0  0  0  0  0  0  0  0  0  0
    0.6171    2.4003   -2.4542 O   0  0  0  0  0  0  0  0  0  0  0  0
   -4.0902    2.8304    0.2081 H   0  0  0  0  0  0  0  0  0  0  0  0
   -2.9874    2.1832   -1.0415 H   0  0  0  0  0  0  0  0  0  0  0  0
   -4.7170    2.5000   -1.4391 H   0  0  0  0  0  0  0  0  0  0  0  0
   -6.0924   -0.2084    0.6360 H   0  0  0  0  0  0  0  0  0  0  0  0
   -5.8728    1.5161    1.1212 H   0  0  0  0  0  0  0  0  0  0  0  0
   -6.4865    1.1085   -0.5215 H   0  0  0  0  0  0  0  0  0  0  0  0
   -3.6619   -0.7271    1.1205 H   0  0  0  0  0  0  0  0  0  0  0  0
   -2.4351    0.4972    0.6191 H   0  0  0  0  0  0  0  0  0  0  0  0
   -3.7044    0.9337    1.7845 H   0  0  0  0  0  0  0  0  0  0  0  0
   -5.0296    0.1952   -2.1980 H   0  0  0  0  0  0  0  0  0  0  0  0
   -4.7656   -1.1693   -1.0795 H   0  0  0  0  0  0  0  0  0  0  0  0
   -3.0673   -1.0037   -3.0057 H   0  0  0  0  0  0  0  0  0  0  0  0
   -2.4574    0.4816   -2.2941 H   0  0  0  0  0  0  0  0  0  0  0  0
   -2.4885   -2.0511   -0.7132 H   0  0  0  0  0  0  0  0  0  0  0  0
   -0.6853   -2.7988    0.1263 H   0  0  0  0  0  0  0  0  0  0  0  0
    1.6556   -3.2176   -1.4768 H   0  0  0  0  0  0  0  0  0  0  0  0
    0.9295   -4.0225    1.2767 H   0  0  0  0  0  0  0  0  0  0  0  0
    2.3428   -4.5588    0.3974 H   0  0  0  0  0  0  0  0  0  0  0  0
    2.7857   -3.6771    2.7493 H   0  0  0  0  0  0  0  0  0  0  0  0
    3.8451   -3.1145    1.5181 H   0  0  0  0  0  0  0  0  0  0  0  0
    3.7636   -1.3472    3.0002 H   0  0  0  0  0  0  0  0  0  0  0  0
    2.0860   -1.5706    3.4065 H   0  0  0  0  0  0  0  0  0  0  0  0
    2.6045    0.7126    2.6718 H   0  0  0  0  0  0  0  0  0  0  0  0
    0.2212    0.2613    2.2076 H   0  0  0  0  0  0  0  0  0  0  0  0
    0.5600   -1.8323    1.6407 H   0  0  0  0  0  0  0  0  0  0  0  0
    3.0443   -1.8751    0.2003 H   0  0  0  0  0  0  0  0  0  0  0  0
    3.4325   -0.4713   -1.4886 H   0  0  0  0  0  0  0  0  0  0  0  0
    4.3199    0.2399    0.7730 H   0  0  0  0  0  0  0  0  0  0  0  0
    5.2381    2.1476    0.5532 H   0  0  0  0  0  0  0  0  0  0  0  0
    1.1738    3.2658   -0.0371 H   0  0  0  0  0  0  0  0  0  0  0  0
    1.9826    3.7186    1.9510 H   0  0  0  0  0  0  0  0  0  0  0  0
   -0.2547    1.2528   -0.0582 H   0  0  0  0  0  0  0  0  0  0  0  0
    0.7284    2.6443   -3.4022 H   0  0  0  0  0  0  0  0  0  0  0  0
  2  1  1  0  0  0  0
  3  2  1  0  0  0  0
  4  2  1  0  0  0  0
  5  2  1  0  0  0  0
  6  5  1  0  0  0  0
  7  6  1  0  0  0  0
  8  7  1  0  0  0  0
  9  8  2  0  0  0  0
 10  8  1  0  0  0  0
 11 10  1  0  0  0  0
 12 11  1  0  0  0  0
 13 12  1  0  0  0  0
 14 13  1  0  0  0  0
 15 14  1  0  0  0  0
 16 15  1  0  0  0  0
 17 16  1  0  0  0  0
 17 10  1  0  0  0  0
 18 17  1  0  0  0  0
 18 11  1  0  0  0  0
 19 18  1  0  0  0  0
 20 19  1  0  0  0  0
 20 15  1  0  0  0  0
 21 20  1  0  0  0  0
 22 21  1  0  0  0  0
 23 22  2  0  0  0  0
 24 22  1  0  0  0  0
 25 21  1  0  0  0  0
 26 25  1  0  0  0  0
 27 25  1  0  0  0  0
 27 16  1  0  0  0  0
 28 27  1  0  0  0  0
 28 19  1  0  0  0  0
 28 21  1  0  0  0  0
 29 28  1  0  0  0  0
 30 29  2  0  0  0  0
 31 29  1  0  0  0  0
  1 32  1  0  0  0  0
  1 33  1  0  0  0  0
  1 34  1  0  0  0  0
  3 35  1  0  0  0  0
  3 36  1  0  0  0  0
  3 37  1  0  0  0  0
  4 38  1  0  0  0  0
  4 39  1  0  0  0  0
  4 40  1  0  0  0  0
  5 41  1  0  0  0  0
  5 42  1  0  0  0  0
  6 43  1  0  0  0  0
  6 44  1  0  0  0  0
  7 45  1  0  0  0  0
 10 46  1  0  0  0  0
 11 47  1  0  0  0  0
 12 48  1  0  0  0  0
 12 49  1  0  0  0  0
 13 50  1  0  0  0  0
 13 51  1  0  0  0  0
 14 52  1  0  0  0  0
 14 53  1  0  0  0  0
 15 54  1  0  0  0  0
 16 55  1  0  0  0  0
 17 56  1  0  0  0  0
 18 57  1  0  0  0  0
 19 58  1  0  0  0  0
 20 59  1  0  0  0  0
 24 60  1  0  0  0  0
 25 61  1  0  0  0  0
 26 62  1  0  0  0  0
 27 63  1  0  0  0  0
 31 64  1  0  0  0  0
M  CHG  1   2   1
M  END
>  <energy>
136.00008676801906

$$$$
