CC12OC1OC1CCC2=CC1SSC(N)=NO
                    3D

 31 33  0  0  0  0  0  0  0  0999 V2000
   -3.7421    1.6782    0.2948 C   0  0  0  0  0  0  0  0  0  0  0  0
   -2.4135    1.1346   -0.1460 C   0  0  0  0  0  0  0  0  0  0  0  0
   -1.6531    2.1110   -0.8739 O   0  0  0  0  0  0  0  0  0  0  0  0
   -1.0980    1.7544    0.3946 C   0  0  0  0  0  0  0  0  0  0  0  0
    0.1859    1.0452    0.2966 O   0  0  0  0  0  0  0  0  0  0  0  0
    0.2255   -0.4013    0.4478 C   0  0  0  0  0  0  0  0  0  0  0  0
   -0.7355   -0.8794    1.5540 C   0  0  0  0  0  0  0  0  0  0  0  0
   -2.1465   -1.0798    0.9906 C   0  0  0  0  0  0  0  0  0  0  0  0
   -2.2711   -0.3343   -0.3300 C   0  0  0  0  0  0  0  0  0  0  0  0
   -1.4793   -0.7531   -1.3494 C   0  0  0  0  0  0  0  0  0  0  0  0
   -0.0785   -1.1546   -0.8919 C   0  0  0  0  0  0  0  0  0  0  0  0
    1.1562   -0.7908   -2.2043 S   0  0  0  0  0  0  0  0  0  0  0  0
    2.7823   -1.9463   -1.6716 S   0  0  0  0  0  0  0  0  0  0  0  0
    3.9018   -0.7740   -0.9900 C   0  0  0  0  0  0  0  0  0  0  0  0
    4.2027   -0.9433    0.3296 N   0  0  0  0  0  0  0  0  0  0  0  0
    4.3939    0.1519   -1.7541 N   0  0  0  0  0  0  0  0  0  0  0  0
    5.2631    0.9841   -1.0256 O   0  0  0  0  0  0  0  0  0  0  0  0
   -4.0308    1.2777    1.2719 H   0  0  0  0  0  0  0  0  0  0  0  0
   -4.5225    1.4154   -0.4271 H   0  0  0  0  0  0  0  0  0  0  0  0
   -3.7231    2.7710    0.3841 H   0  0  0  0  0  0  0  0  0  0  0  0
   -1.1778    2.4895    1.1884 H   0  0  0  0  0  0  0  0  0  0  0  0
    1.2432   -0.6272    0.7787 H   0  0  0  0  0  0  0  0  0  0  0  0
   -0.7592   -0.1570    2.3786 H   0  0  0  0  0  0  0  0  0  0  0  0
   -0.3884   -1.8343    1.9676 H   0  0  0  0  0  0  0  0  0  0  0  0
   -2.9014   -0.7556    1.7149 H   0  0  0  0  0  0  0  0  0  0  0  0
   -2.3359   -2.1468    0.8181 H   0  0  0  0  0  0  0  0  0  0  0  0
   -1.5110   -0.1882   -2.2841 H   0  0  0  0  0  0  0  0  0  0  0  0
   -0.0693   -2.2405   -0.7393 H   0  0  0  0  0  0  0  0  0  0  0  0
    3.4469   -1.2902    0.8992 H   0  0  0  0  0  0  0  0  0  0  0  0
    4.6519   -0.1085    0.6960 H   0  0  0  0  0  0  0  0  0  0  0  0
    5.5836    1.5924   -1.7184 H   0  0  0  0  0  0  0  0  0  0  0  0
  2  1  1  0  0  0  0
  3  2  1  0  0  0  0
  4  3  1  0  0  0  0
  4  2  1  0  0  0  0
  5  4  1  0  0  0  0
  6  5  1  0  0  0  0
  7  6  1  0  0  0  0
  8  7  1  0  0  0  0
  9  8  1  0  0  0  0
  9  2  1  0  0  0  0
 10  9  2  0  0  0  0
 11 10  1  0  0  0  0
 11  6  1  0  0  0  0
 12 11  1  0  0  0  0
 13 12  1  0  0  0  0
 14 13  1  0  0  0  0
 15 14  1  0  0  0  0
 16 14  2  0  0  0  0
 17 16  1  0  0  0  0
  1 18  1  0  0  0  0
  1 19  1  0  0  0  0
  1 20  1  0  0  0  0
  4 21  1  0  0  0  0
  6 22  1  0  0  0  0
  7 23  1  0  0  0  0
  7 24  1  0  0  0  0
  8 25  1  0  0  0  0
  8 26  1  0  0  0  0
 10 27  1  0  0  0  0
 11 28  1  0  0  0  0
 15 29  1  0  0  0  0
 15 30  1  0  0  0  0
 17 31  1  0  0  0  0
M  END
>  <energy>
57.529146413527599

$$$$
