CC[n+]1cc(C[S+](C)[O-])c2cc1C(C)(CC)C1C(C)C(=O)N(CC(=O)NC)CN1C2=N
                    3D

 65 67  0  0  0  0  0  0  0  0999 V2000
    2.3983   -2.4752   -2.6139 C   0  0  0  0  0  0  0  0  0  0  0  0
    3.1133   -1.3897   -1.8347 C   0  0  0  0  0  0  0  0  0  0  0  0
    2.3584   -0.9516   -0.6227 N   0  3  0  0  0  0  0  0  0  0  0  0
    1.9856   -1.8672    0.3260 C   0  0  0  0  0  0  0  0  0  0  0  0
    1.4644   -1.4102    1.5411 C   0  0  0  0  0  0  0  0  0  0  0  0
    0.7804   -2.3209    2.5251 C   0  0  0  0  0  0  0  0  0  0  0  0
    1.8714   -2.5657    3.9664 S   0  3  0  0  0  0  0  0  0  0  0  0
    0.6316   -3.2984    5.0638 C   0  0  0  0  0  0  0  0  0  0  0  0
    2.8628   -3.6169    3.5626 O   0  5  0  0  0  0  0  0  0  0  0  0
    1.5884   -0.0395    1.8071 C   0  0  0  0  0  0  0  0  0  0  0  0
    2.4832    0.6699    1.0411 C   0  0  0  0  0  0  0  0  0  0  0  0
    2.3046    0.3848   -0.3107 C   0  0  0  0  0  0  0  0  0  0  0  0
    1.3747    1.3939   -1.0686 C   0  0  0  0  0  0  0  0  0  0  0  0
    2.3707    2.5231   -1.4991 C   0  0  0  0  0  0  0  0  0  0  0  0
    0.7715    0.8721   -2.4017 C   0  0  0  0  0  0  0  0  0  0  0  0
   -0.2919   -0.2013   -2.3327 C   0  0  0  0  0  0  0  0  0  0  0  0
    0.2945    2.0518   -0.0498 C   0  0  0  0  0  0  0  0  0  0  0  0
   -0.6789    3.0704   -0.6652 C   0  0  0  0  0  0  0  0  0  0  0  0
   -0.9765    4.2366    0.2914 C   0  0  0  0  0  0  0  0  0  0  0  0
   -1.9741    2.4288   -1.0989 C   0  0  0  0  0  0  0  0  0  0  0  0
   -2.5753    2.8537   -2.0814 O   0  0  0  0  0  0  0  0  0  0  0  0
   -2.4302    1.3853   -0.3187 N   0  0  0  0  0  0  0  0  0  0  0  0
   -3.8012    0.9158   -0.5391 C   0  0  0  0  0  0  0  0  0  0  0  0
   -3.9067   -0.0792   -1.7078 C   0  0  0  0  0  0  0  0  0  0  0  0
   -4.4265    0.2069   -2.7803 O   0  0  0  0  0  0  0  0  0  0  0  0
   -3.3776   -1.3381   -1.5595 N   0  0  0  0  0  0  0  0  0  0  0  0
   -3.1810   -2.0295   -0.3144 C   0  0  0  0  0  0  0  0  0  0  0  0
   -1.8483    1.1965    0.9731 C   0  0  0  0  0  0  0  0  0  0  0  0
   -0.4019    1.0354    0.8154 N   0  0  0  0  0  0  0  0  0  0  0  0
    0.2608    0.6165    1.9695 C   0  0  0  0  0  0  0  0  0  0  0  0
   -0.2530    0.7153    3.1505 N   0  0  0  0  0  0  0  0  0  0  0  0
    1.3199   -2.3229   -2.6634 H   0  0  0  0  0  0  0  0  0  0  0  0
    2.5734   -3.4600   -2.1661 H   0  0  0  0  0  0  0  0  0  0  0  0
    2.7898   -2.5202   -3.6350 H   0  0  0  0  0  0  0  0  0  0  0  0
    4.0883   -1.7460   -1.4773 H   0  0  0  0  0  0  0  0  0  0  0  0
    3.2938   -0.5101   -2.4598 H   0  0  0  0  0  0  0  0  0  0  0  0
    2.0354   -2.9161    0.0599 H   0  0  0  0  0  0  0  0  0  0  0  0
    0.5711   -3.2962    2.0773 H   0  0  0  0  0  0  0  0  0  0  0  0
   -0.1708   -1.8983    2.8540 H   0  0  0  0  0  0  0  0  0  0  0  0
   -0.1958   -2.5934    5.2056 H   0  0  0  0  0  0  0  0  0  0  0  0
    0.2610   -4.2347    4.6417 H   0  0  0  0  0  0  0  0  0  0  0  0
    1.1053   -3.4865    6.0307 H   0  0  0  0  0  0  0  0  0  0  0  0
    3.5229    0.5263    1.3789 H   0  0  0  0  0  0  0  0  0  0  0  0
    2.8393    3.0154   -0.6373 H   0  0  0  0  0  0  0  0  0  0  0  0
    3.1835    2.1197   -2.1143 H   0  0  0  0  0  0  0  0  0  0  0  0
    1.8780    3.3012   -2.0922 H   0  0  0  0  0  0  0  0  0  0  0  0
    1.5718    0.5102   -3.0535 H   0  0  0  0  0  0  0  0  0  0  0  0
    0.3385    1.7125   -2.9587 H   0  0  0  0  0  0  0  0  0  0  0  0
   -0.1961   -0.8610   -1.4689 H   0  0  0  0  0  0  0  0  0  0  0  0
   -0.2734   -0.8113   -3.2420 H   0  0  0  0  0  0  0  0  0  0  0  0
   -1.2763    0.2538   -2.3234 H   0  0  0  0  0  0  0  0  0  0  0  0
    0.8957    2.6549    0.6474 H   0  0  0  0  0  0  0  0  0  0  0  0
   -0.2314    3.5146   -1.5598 H   0  0  0  0  0  0  0  0  0  0  0  0
   -1.7306    4.9069   -0.1347 H   0  0  0  0  0  0  0  0  0  0  0  0
   -1.3414    3.9178    1.2719 H   0  0  0  0  0  0  0  0  0  0  0  0
   -0.0730    4.8293    0.4674 H   0  0  0  0  0  0  0  0  0  0  0  0
   -4.1971    0.4483    0.3666 H   0  0  0  0  0  0  0  0  0  0  0  0
   -4.4429    1.7736   -0.7626 H   0  0  0  0  0  0  0  0  0  0  0  0
   -3.5579   -1.8970   -2.3873 H   0  0  0  0  0  0  0  0  0  0  0  0
   -4.0392   -1.8550    0.3387 H   0  0  0  0  0  0  0  0  0  0  0  0
   -3.0756   -3.0975   -0.5216 H   0  0  0  0  0  0  0  0  0  0  0  0
   -2.2637   -1.6694    0.1555 H   0  0  0  0  0  0  0  0  0  0  0  0
   -2.1147    2.0368    1.6227 H   0  0  0  0  0  0  0  0  0  0  0  0
   -2.2663    0.2869    1.4195 H   0  0  0  0  0  0  0  0  0  0  0  0
    0.3869    0.3939    3.8861 H   0  0  0  0  0  0  0  0  0  0  0  0
  2  1  1  0  0  0  0
  3  2  1  0  0  0  0
  4  3  2  0  0  0  0
  5  4  1  0  0  0  0
  6  5  1  0  0  0  0
  7  6  1  0  0  0  0
  8  7  1  0  0  0  0
  9  7  1  0  0  0  0
 10  5  2  0  0  0  0
 11 10  1  0  0  0  0
 12 11  2  0  0  0  0
 12  3  1  0  0  0  0
 13 12  1  0  0  0  0
 14 13  1  0  0  0  0
 15 13  1  0  0  0  0
 16 15  1  0  0  0  0
 17 13  1  0  0  0  0
 18 17  1  0  0  0  0
 19 18  1  0  0  0  0
 20 18  1  0  0  0  0
 21 20  2  0  0  0  0
 22 20  1  0  0  0  0
 23 22  1  0  0  0  0
 24 23  1  0  0  0  0
 25 24  2  0  0  0  0
 26 24  1  0  0  0  0
 27 26  1  0  0  0  0
 28 22  1  0  0  0  0
 29 28  1  0  0  0  0
 29 17  1  0  0  0  0
 30 29  1  0  0  0  0
 30 10  1  0  0  0  0
 31 30  2  0  0  0  0
  1 32  1  0  0  0  0
  1 33  1  0  0  0  0
  1 34  1  0  0  0  0
  2 35  1  0  0  0  0
  2 36  1  0  0  0  0
  4 37  1  0  0  0  0
  6 38  1  0  0  0  0
  6 39  1  0  0  0  0
  8 40  1  0  0  0  0
  8 41  1  0  0  0  0
  8 42  1  0  0  0  0
 11 43  1  0  0  0  0
 14 44  1  0  0  0  0
 14 45  1  0  0  0  0
 14 46  1  0  0  0  0
 15 47  1  0  0  0  0
 15 48  1  0  0  0  0
 16 49  1  0  0  0  0
 16 50  1  0  0  0  0
 16 51  1  0  0  0  0
 17 52  1  0  0  0  0
 18 53  1  0  0  0  0
 19 54  1  0  0  0  0
 19 55  1  0  0  0  0
 19 56  1  0  0  0  0
 23 57  1  0  0  0  0
 23 58  1  0  0  0  0
 26 59  1  0  0  0  0
 27 60  1  0  0  0  0
 27 61  1  0  0  0  0
 27 62  1  0  0  0  0
 28 63  1  0  0  0  0
 28 64  1  0  0  0  0
 31 65  1  0  0  0  0
M  CHG  3   3   1   7   1   9  -1
M  END
>  <energy>
80.556783602775425

$$$$
