C=CCNC(=O)C(=O)C1C2C3C[N+]4(C)C3C(C)C(C(=O)NC(C)(C)C)C3CC1(C(N)=O)CC324
                    3D

 70 74  0  0  0  0  0  0  0  0999 V2000
    3.7864   -5.8426   -0.4991 C   0  0  0  0  0  0  0  0  0  0  0  0
    3.6615   -4.5967   -0.9799 C   0  0  0  0  0  0  0  0  0  0  0  0
    4.6716   -3.5072   -0.7758 C   0  0  0  0  0  0  0  0  0  0  0  0
    4.1278   -2.6105    0.2090 N   0  0  0  0  0  0  0  0  0  0  0  0
    3.9524   -1.2666    0.0052 C   0  0  0  0  0  0  0  0  0  0  0  0
    4.2093   -0.6330   -1.0029 O   0  0  0  0  0  0  0  0  0  0  0  0
    3.2780   -0.5673    1.1693 C   0  0  0  0  0  0  0  0  0  0  0  0
    3.8635   -0.5438    2.2497 O   0  0  0  0  0  0  0  0  0  0  0  0
    1.8518   -0.0539    1.0155 C   0  0  0  0  0  0  0  0  0  0  0  0
    1.3642    0.7140   -0.1842 C   0  0  0  0  0  0  0  0  0  0  0  0
    2.0005    1.1619   -1.4614 C   0  0  0  0  0  0  0  0  0  0  0  0
    1.9595    0.0308   -2.5562 C   0  0  0  0  0  0  0  0  0  0  0  0
    0.4933    0.0757   -2.2637 N   0  3  0  0  0  0  0  0  0  0  0  0
   -0.3159   -0.4467   -3.3677 C   0  0  0  0  0  0  0  0  0  0  0  0
    0.6365    1.5673   -2.2374 C   0  0  0  0  0  0  0  0  0  0  0  0
   -0.6359    2.2634   -1.6625 C   0  0  0  0  0  0  0  0  0  0  0  0
   -0.2516    3.6841   -1.2433 C   0  0  0  0  0  0  0  0  0  0  0  0
   -1.4840    1.4540   -0.5966 C   0  0  0  0  0  0  0  0  0  0  0  0
   -1.9032    2.2439    0.6424 C   0  0  0  0  0  0  0  0  0  0  0  0
   -1.1340    2.4342    1.5709 O   0  0  0  0  0  0  0  0  0  0  0  0
   -3.1887    2.7400    0.6074 N   0  0  0  0  0  0  0  0  0  0  0  0
   -4.2529    2.2281    1.4985 C   0  0  0  0  0  0  0  0  0  0  0  0
   -4.8605    0.9712    0.8487 C   0  0  0  0  0  0  0  0  0  0  0  0
   -5.3450    3.3012    1.6108 C   0  0  0  0  0  0  0  0  0  0  0  0
   -3.7656    1.8751    2.9131 C   0  0  0  0  0  0  0  0  0  0  0  0
   -1.0032    0.0180   -0.2465 C   0  0  0  0  0  0  0  0  0  0  0  0
   -0.6945   -0.5002    1.2180 C   0  0  0  0  0  0  0  0  0  0  0  0
    0.7441   -1.1589    1.1012 C   0  0  0  0  0  0  0  0  0  0  0  0
    1.1054   -2.1997    2.1310 C   0  0  0  0  0  0  0  0  0  0  0  0
    0.9892   -1.8289    3.4340 N   0  0  0  0  0  0  0  0  0  0  0  0
    1.5933   -3.2767    1.8066 O   0  0  0  0  0  0  0  0  0  0  0  0
    0.6928   -1.6450   -0.3559 C   0  0  0  0  0  0  0  0  0  0  0  0
    0.3494   -0.2519   -0.8442 C   0  0  0  0  0  0  0  0  0  0  0  0
    3.0166   -6.5901   -0.6630 H   0  0  0  0  0  0  0  0  0  0  0  0
    4.6507   -6.1533    0.0783 H   0  0  0  0  0  0  0  0  0  0  0  0
    2.7664   -4.3464   -1.5469 H   0  0  0  0  0  0  0  0  0  0  0  0
    5.6172   -3.8882   -0.3773 H   0  0  0  0  0  0  0  0  0  0  0  0
    4.8669   -2.9967   -1.7247 H   0  0  0  0  0  0  0  0  0  0  0  0
    3.8475   -3.0133    1.1024 H   0  0  0  0  0  0  0  0  0  0  0  0
    1.7285    0.6075    1.8899 H   0  0  0  0  0  0  0  0  0  0  0  0
    0.9136    1.6055    0.2567 H   0  0  0  0  0  0  0  0  0  0  0  0
    2.8215    1.8776   -1.4672 H   0  0  0  0  0  0  0  0  0  0  0  0
    2.2427    0.3480   -3.5726 H   0  0  0  0  0  0  0  0  0  0  0  0
    2.4017   -0.9497   -2.3797 H   0  0  0  0  0  0  0  0  0  0  0  0
   -1.3727   -0.2806   -3.1416 H   0  0  0  0  0  0  0  0  0  0  0  0
   -0.1207   -1.5175   -3.4627 H   0  0  0  0  0  0  0  0  0  0  0  0
   -0.0498    0.0642   -4.2992 H   0  0  0  0  0  0  0  0  0  0  0  0
    0.8457    2.0186   -3.2239 H   0  0  0  0  0  0  0  0  0  0  0  0
   -1.3111    2.3900   -2.5237 H   0  0  0  0  0  0  0  0  0  0  0  0
   -1.1370    4.2752   -0.9955 H   0  0  0  0  0  0  0  0  0  0  0  0
    0.2601    4.2002   -2.0640 H   0  0  0  0  0  0  0  0  0  0  0  0
    0.4240    3.6991   -0.3819 H   0  0  0  0  0  0  0  0  0  0  0  0
   -2.4312    1.2735   -1.1306 H   0  0  0  0  0  0  0  0  0  0  0  0
   -3.5426    2.9470   -0.3192 H   0  0  0  0  0  0  0  0  0  0  0  0
   -5.7119    0.5890    1.4192 H   0  0  0  0  0  0  0  0  0  0  0  0
   -4.1271    0.1602    0.7612 H   0  0  0  0  0  0  0  0  0  0  0  0
   -5.2167    1.1900   -0.1652 H   0  0  0  0  0  0  0  0  0  0  0  0
   -6.1857    2.9488    2.2182 H   0  0  0  0  0  0  0  0  0  0  0  0
   -5.7352    3.5748    0.6253 H   0  0  0  0  0  0  0  0  0  0  0  0
   -4.9529    4.2143    2.0751 H   0  0  0  0  0  0  0  0  0  0  0  0
   -3.2992    2.7367    3.4030 H   0  0  0  0  0  0  0  0  0  0  0  0
   -3.0338    1.0567    2.9016 H   0  0  0  0  0  0  0  0  0  0  0  0
   -4.5975    1.5487    3.5503 H   0  0  0  0  0  0  0  0  0  0  0  0
   -1.7363   -0.6765   -0.6910 H   0  0  0  0  0  0  0  0  0  0  0  0
   -0.6938    0.2654    1.9952 H   0  0  0  0  0  0  0  0  0  0  0  0
   -1.4429   -1.2555    1.4978 H   0  0  0  0  0  0  0  0  0  0  0  0
    0.8514   -0.8730    3.7383 H   0  0  0  0  0  0  0  0  0  0  0  0
    1.4154   -2.4391    4.1240 H   0  0  0  0  0  0  0  0  0  0  0  0
   -0.0959   -2.3860   -0.5348 H   0  0  0  0  0  0  0  0  0  0  0  0
    1.6284   -2.0585   -0.7254 H   0  0  0  0  0  0  0  0  0  0  0  0
  2  1  2  0  0  0  0
  3  2  1  0  0  0  0
  4  3  1  0  0  0  0
  5  4  1  0  0  0  0
  6  5  2  0  0  0  0
  7  5  1  0  0  0  0
  8  7  2  0  0  0  0
  9  7  1  0  0  0  0
 10  9  1  0  0  0  0
 11 10  1  0  0  0  0
 12 11  1  0  0  0  0
 13 12  1  0  0  0  0
 14 13  1  0  0  0  0
 15 13  1  0  0  0  0
 15 11  1  0  0  0  0
 16 15  1  0  0  0  0
 17 16  1  0  0  0  0
 18 16  1  0  0  0  0
 19 18  1  0  0  0  0
 20 19  2  0  0  0  0
 21 19  1  0  0  0  0
 22 21  1  0  0  0  0
 23 22  1  0  0  0  0
 24 22  1  0  0  0  0
 25 22  1  0  0  0  0
 26 18  1  0  0  0  0
 27 26  1  0  0  0  0
 28 27  1  0  0  0  0
 28  9  1  0  0  0  0
 29 28  1  0  0  0  0
 30 29  1  0  0  0  0
 31 29  2  0  0  0  0
 32 28  1  0  0  0  0
 33 32  1  0  0  0  0
 33 26  1  0  0  0  0
 33 10  1  0  0  0  0
 33 13  1  0  0  0  0
  1 34  1  0  0  0  0
  1 35  1  0  0  0  0
  2 36  1  0  0  0  0
  3 37  1  0  0  0  0
  3 38  1  0  0  0  0
  4 39  1  0  0  0  0
  9 40  1  0  0  0  0
 10 41  1  0  0  0  0
 11 42  1  0  0  0  0
 12 43  1  0  0  0  0
 12 44  1  0  0  0  0
 14 45  1  0  0  0  0
 14 46  1  0  0  0  0
 14 47  1  0  0  0  0
 15 48  1  0  0  0  0
 16 49  1  0  0  0  0
 17 50  1  0  0  0  0
 17 51  1  0  0  0  0
 17 52  1  0  0  0  0
 18 53  1  0  0  0  0
 21 54  1  0  0  0  0
 23 55  1  0  0  0  0
 23 56  1  0  0  0  0
 23 57  1  0  0  0  0
 24 58  1  0  0  0  0
 24 59  1  0  0  0  0
 24 60  1  0  0  0  0
 25 61  1  0  0  0  0
 25 62  1  0  0  0  0
 25 63  1  0  0  0  0
 26 64  1  0  0  0  0
 27 65  1  0  0  0  0
 27 66  1  0  0  0  0
 30 67  1  0  0  0  0
 30 68  1  0  0  0  0
 32 69  1  0  0  0  0
 32 70  1  0  0  0  0
M  CHG  1  13   1
M  END
>  <energy>
99.357304214489645

$$$$
