Cn1ncc2c1C(=O)c1ccc(NC(=O)C(NC(=O)C(NN)n3ccc(=O)[nH]c3=O)C(O)O)c(c1)CC2
                    3D

 61 64  0  0  0  0  0  0  0  0999 V2000
    5.7818    4.0264    2.6445 C   0  0  0  0  0  0  0  0  0  0  0  0
    5.7639    2.9810    1.6402 N   0  0  0  0  0  0  0  0  0  0  0  0
    6.9051    2.3233    1.4002 N   0  0  0  0  0  0  0  0  0  0  0  0
    6.5861    1.4727    0.4312 C   0  0  0  0  0  0  0  0  0  0  0  0
    5.2015    1.4920    0.1059 C   0  0  0  0  0  0  0  0  0  0  0  0
    4.6695    2.4631    0.9704 C   0  0  0  0  0  0  0  0  0  0  0  0
    3.3074    2.9362    1.2140 C   0  0  0  0  0  0  0  0  0  0  0  0
    3.0459    4.0813    1.5745 O   0  0  0  0  0  0  0  0  0  0  0  0
    2.1738    1.9900    1.0261 C   0  0  0  0  0  0  0  0  0  0  0  0
    0.9088    2.3972    0.5792 C   0  0  0  0  0  0  0  0  0  0  0  0
    0.1564    1.4612   -0.1541 C   0  0  0  0  0  0  0  0  0  0  0  0
    0.8120    0.3167   -0.6341 C   0  0  0  0  0  0  0  0  0  0  0  0
    0.0850   -0.7542   -1.1985 N   0  0  0  0  0  0  0  0  0  0  0  0
   -0.3618   -1.7412   -0.3136 C   0  0  0  0  0  0  0  0  0  0  0  0
   -0.3590   -1.5974    0.9120 O   0  0  0  0  0  0  0  0  0  0  0  0
   -1.1145   -2.9301   -0.9211 C   0  0  0  0  0  0  0  0  0  0  0  0
   -2.5252   -2.4904   -0.9763 N   0  0  0  0  0  0  0  0  0  0  0  0
   -3.3989   -3.0804   -0.0724 C   0  0  0  0  0  0  0  0  0  0  0  0
   -3.4136   -4.3093    0.0337 O   0  0  0  0  0  0  0  0  0  0  0  0
   -4.2492   -2.1183    0.8280 C   0  0  0  0  0  0  0  0  0  0  0  0
   -5.6702   -2.5612    0.9533 N   0  0  0  0  0  0  0  0  0  0  0  0
   -6.6048   -2.0962   -0.0370 N   0  0  0  0  0  0  0  0  0  0  0  0
   -4.0812   -0.6596    0.6420 N   0  0  0  0  0  0  0  0  0  0  0  0
   -4.4614   -0.0090   -0.5254 C   0  0  0  0  0  0  0  0  0  0  0  0
   -4.2233    1.2871   -0.7334 C   0  0  0  0  0  0  0  0  0  0  0  0
   -3.4638    2.0437    0.2714 C   0  0  0  0  0  0  0  0  0  0  0  0
   -3.0735    3.1756    0.0410 O   0  0  0  0  0  0  0  0  0  0  0  0
   -3.1947    1.3674    1.4288 N   0  0  0  0  0  0  0  0  0  0  0  0
   -3.4542    0.0450    1.6744 C   0  0  0  0  0  0  0  0  0  0  0  0
   -3.1366   -0.4415    2.7661 O   0  0  0  0  0  0  0  0  0  0  0  0
   -0.5586   -3.4938   -2.2343 C   0  0  0  0  0  0  0  0  0  0  0  0
   -1.2188   -4.6901   -2.6017 O   0  0  0  0  0  0  0  0  0  0  0  0
   -0.7263   -2.6128   -3.3260 O   0  0  0  0  0  0  0  0  0  0  0  0
    2.1661    0.1818   -0.3383 C   0  0  0  0  0  0  0  0  0  0  0  0
    2.4543    0.6391    0.9292 C   0  0  0  0  0  0  0  0  0  0  0  0
    3.1785    0.6230   -1.4085 C   0  0  0  0  0  0  0  0  0  0  0  0
    4.6467    0.5759   -0.9642 C   0  0  0  0  0  0  0  0  0  0  0  0
    5.0683    3.7472    3.4203 H   0  0  0  0  0  0  0  0  0  0  0  0
    6.7825    4.0951    3.0792 H   0  0  0  0  0  0  0  0  0  0  0  0
    5.5233    4.9785    2.1770 H   0  0  0  0  0  0  0  0  0  0  0  0
    7.3781    0.8707    0.0056 H   0  0  0  0  0  0  0  0  0  0  0  0
    0.5482    3.4122    0.7257 H   0  0  0  0  0  0  0  0  0  0  0  0
   -0.8689    1.6673   -0.4305 H   0  0  0  0  0  0  0  0  0  0  0  0
    0.4557   -1.1375   -2.0679 H   0  0  0  0  0  0  0  0  0  0  0  0
   -1.0385   -3.7393   -0.1818 H   0  0  0  0  0  0  0  0  0  0  0  0
   -2.6092   -1.4846   -1.0556 H   0  0  0  0  0  0  0  0  0  0  0  0
   -3.8327   -2.3632    1.8148 H   0  0  0  0  0  0  0  0  0  0  0  0
   -5.9610   -2.2942    1.8988 H   0  0  0  0  0  0  0  0  0  0  0  0
   -6.6528   -1.0771   -0.0820 H   0  0  0  0  0  0  0  0  0  0  0  0
   -6.4457   -2.4885   -0.9672 H   0  0  0  0  0  0  0  0  0  0  0  0
   -4.9704   -0.5873   -1.2930 H   0  0  0  0  0  0  0  0  0  0  0  0
   -4.5182    1.8150   -1.6306 H   0  0  0  0  0  0  0  0  0  0  0  0
   -2.6605    1.8589    2.1293 H   0  0  0  0  0  0  0  0  0  0  0  0
    0.5100   -3.7065   -2.1248 H   0  0  0  0  0  0  0  0  0  0  0  0
   -2.1075   -4.6519   -2.2042 H   0  0  0  0  0  0  0  0  0  0  0  0
   -1.1768   -3.1847   -3.9820 H   0  0  0  0  0  0  0  0  0  0  0  0
    1.9116    0.0494    1.6982 H   0  0  0  0  0  0  0  0  0  0  0  0
    3.0549   -0.0550   -2.2639 H   0  0  0  0  0  0  0  0  0  0  0  0
    2.9353    1.6389   -1.7570 H   0  0  0  0  0  0  0  0  0  0  0  0
    5.2345    0.7970   -1.8630 H   0  0  0  0  0  0  0  0  0  0  0  0
    4.8867   -0.4547   -0.6725 H   0  0  0  0  0  0  0  0  0  0  0  0
  2  1  1  0  0  0  0
  3  2  1  0  0  0  0
  4  3  2  0  0  0  0
  5  4  1  0  0  0  0
  6  5  2  0  0  0  0
  6  2  1  0  0  0  0
  7  6  1  0  0  0  0
  8  7  2  0  0  0  0
  9  7  1  0  0  0  0
 10  9  2  0  0  0  0
 11 10  1  0  0  0  0
 12 11  2  0  0  0  0
 13 12  1  0  0  0  0
 14 13  1  0  0  0  0
 15 14  2  0  0  0  0
 16 14  1  0  0  0  0
 17 16  1  0  0  0  0
 18 17  1  0  0  0  0
 19 18  2  0  0  0  0
 20 18  1  0  0  0  0
 21 20  1  0  0  0  0
 22 21  1  0  0  0  0
 23 20  1  0  0  0  0
 24 23  1  0  0  0  0
 25 24  2  0  0  0  0
 26 25  1  0  0  0  0
 27 26  2  0  0  0  0
 28 26  1  0  0  0  0
 29 28  1  0  0  0  0
 29 23  1  0  0  0  0
 30 29  2  0  0  0  0
 31 16  1  0  0  0  0
 32 31  1  0  0  0  0
 33 31  1  0  0  0  0
 34 12  1  0  0  0  0
 35 34  2  0  0  0  0
 35  9  1  0  0  0  0
 36 34  1  0  0  0  0
 37 36  1  0  0  0  0
 37  5  1  0  0  0  0
  1 38  1  0  0  0  0
  1 39  1  0  0  0  0
  1 40  1  0  0  0  0
  4 41  1  0  0  0  0
 10 42  1  0  0  0  0
 11 43  1  0  0  0  0
 13 44  1  0  0  0  0
 16 45  1  0  0  0  0
 17 46  1  0  0  0  0
 20 47  1  0  0  0  0
 21 48  1  0  0  0  0
 22 49  1  0  0  0  0
 22 50  1  0  0  0  0
 24 51  1  0  0  0  0
 25 52  1  0  0  0  0
 28 53  1  0  0  0  0
 31 54  1  0  0  0  0
 32 55  1  0  0  0  0
 33 56  1  0  0  0  0
 35 57  1  0  0  0  0
 36 58  1  0  0  0  0
 36 59  1  0  0  0  0
 37 60  1  0  0  0  0
 37 61  1  0  0  0  0
M  END
>  <energy>
197.77389263258928

$$$$
