CC(=O)C(N)(NC(=O)C1NC2CCC21)C(=O)NC(C(=O)NCCCN)C(C)C
                    3D

 60 61  0  0  0  0  0  0  0  0999 V2000
    2.6933   -0.3156   -3.4709 C   0  0  0  0  0  0  0  0  0  0  0  0
    2.7581   -1.4185   -2.4389 C   0  0  0  0  0  0  0  0  0  0  0  0
    3.3010   -2.4942   -2.7079 O   0  0  0  0  0  0  0  0  0  0  0  0
    2.0445   -1.1850   -1.0791 C   0  0  0  0  0  0  0  0  0  0  0  0
    2.5092   -2.1889   -0.1146 N   0  0  0  0  0  0  0  0  0  0  0  0
    0.5985   -1.3000   -1.2643 N   0  0  0  0  0  0  0  0  0  0  0  0
   -0.2365   -2.3756   -1.1180 C   0  0  0  0  0  0  0  0  0  0  0  0
   -1.1014   -2.4844   -2.0024 O   0  0  0  0  0  0  0  0  0  0  0  0
   -0.2087   -3.2725    0.1745 C   0  0  0  0  0  0  0  0  0  0  0  0
   -1.6047   -3.7351    0.4828 N   0  0  0  0  0  0  0  0  0  0  0  0
   -1.6860   -2.8103    1.6120 C   0  0  0  0  0  0  0  0  0  0  0  0
   -1.5484   -3.5855    2.9255 C   0  0  0  0  0  0  0  0  0  0  0  0
   -0.0127   -3.6000    2.7403 C   0  0  0  0  0  0  0  0  0  0  0  0
   -0.1748   -2.6084    1.5689 C   0  0  0  0  0  0  0  0  0  0  0  0
    2.3846    0.2304   -0.5022 C   0  0  0  0  0  0  0  0  0  0  0  0
    3.5030    0.7307   -0.5924 O   0  0  0  0  0  0  0  0  0  0  0  0
    1.3616    0.8276    0.2122 N   0  0  0  0  0  0  0  0  0  0  0  0
    1.4120    2.2626    0.5351 C   0  0  0  0  0  0  0  0  0  0  0  0
    0.1579    2.9186   -0.0827 C   0  0  0  0  0  0  0  0  0  0  0  0
    0.1650    4.0586   -0.5356 O   0  0  0  0  0  0  0  0  0  0  0  0
   -0.9796    2.1218   -0.0643 N   0  0  0  0  0  0  0  0  0  0  0  0
   -2.1574    2.5054   -0.8200 C   0  0  0  0  0  0  0  0  0  0  0  0
   -2.7909    1.2596   -1.4316 C   0  0  0  0  0  0  0  0  0  0  0  0
   -3.8814    1.6172   -2.4365 C   0  0  0  0  0  0  0  0  0  0  0  0
   -4.4943    0.4106   -2.9729 N   0  0  0  0  0  0  0  0  0  0  0  0
    1.6593    2.5001    2.0375 C   0  0  0  0  0  0  0  0  0  0  0  0
    0.3975    2.7019    2.8746 C   0  0  0  0  0  0  0  0  0  0  0  0
    2.6093    3.6913    2.2270 C   0  0  0  0  0  0  0  0  0  0  0  0
    3.3299    0.5248   -3.1843 H   0  0  0  0  0  0  0  0  0  0  0  0
    1.6608    0.0220   -3.5931 H   0  0  0  0  0  0  0  0  0  0  0  0
    3.0399   -0.6956   -4.4368 H   0  0  0  0  0  0  0  0  0  0  0  0
    3.4978   -1.9678    0.0647 H   0  0  0  0  0  0  0  0  0  0  0  0
    2.5902   -3.0718   -0.6299 H   0  0  0  0  0  0  0  0  0  0  0  0
    0.2827   -0.8282   -2.1056 H   0  0  0  0  0  0  0  0  0  0  0  0
    0.4832   -4.1127    0.0606 H   0  0  0  0  0  0  0  0  0  0  0  0
   -2.2496   -3.5279   -0.2898 H   0  0  0  0  0  0  0  0  0  0  0  0
   -2.3430   -1.9427    1.5331 H   0  0  0  0  0  0  0  0  0  0  0  0
   -2.0345   -4.5685    2.9586 H   0  0  0  0  0  0  0  0  0  0  0  0
   -1.8732   -3.0110    3.7993 H   0  0  0  0  0  0  0  0  0  0  0  0
    0.5420   -3.2100    3.6010 H   0  0  0  0  0  0  0  0  0  0  0  0
    0.3985   -4.5781    2.4642 H   0  0  0  0  0  0  0  0  0  0  0  0
    0.1894   -1.5893    1.7005 H   0  0  0  0  0  0  0  0  0  0  0  0
    0.4536    0.3884    0.1057 H   0  0  0  0  0  0  0  0  0  0  0  0
    2.2470    2.6802   -0.0414 H   0  0  0  0  0  0  0  0  0  0  0  0
   -1.1177    1.5348    0.7485 H   0  0  0  0  0  0  0  0  0  0  0  0
   -2.8513    3.0067   -0.1365 H   0  0  0  0  0  0  0  0  0  0  0  0
   -1.8726    3.2068   -1.6108 H   0  0  0  0  0  0  0  0  0  0  0  0
   -3.2029    0.6296   -0.6308 H   0  0  0  0  0  0  0  0  0  0  0  0
   -2.0147    0.6658   -1.9343 H   0  0  0  0  0  0  0  0  0  0  0  0
   -3.4586    2.1961   -3.2657 H   0  0  0  0  0  0  0  0  0  0  0  0
   -4.6517    2.2331   -1.9628 H   0  0  0  0  0  0  0  0  0  0  0  0
   -3.7725   -0.2129   -3.3374 H   0  0  0  0  0  0  0  0  0  0  0  0
   -4.9506   -0.1088   -2.2241 H   0  0  0  0  0  0  0  0  0  0  0  0
    2.1867    1.6277    2.4459 H   0  0  0  0  0  0  0  0  0  0  0  0
    0.6571    2.8563    3.9271 H   0  0  0  0  0  0  0  0  0  0  0  0
   -0.2543    1.8272    2.8281 H   0  0  0  0  0  0  0  0  0  0  0  0
   -0.1678    3.5836    2.5552 H   0  0  0  0  0  0  0  0  0  0  0  0
    3.5745    3.4995    1.7450 H   0  0  0  0  0  0  0  0  0  0  0  0
    2.8091    3.8713    3.2874 H   0  0  0  0  0  0  0  0  0  0  0  0
    2.1944    4.6090    1.8021 H   0  0  0  0  0  0  0  0  0  0  0  0
  2  1  1  0  0  0  0
  3  2  2  0  0  0  0
  4  2  1  0  0  0  0
  5  4  1  0  0  0  0
  6  4  1  0  0  0  0
  7  6  1  0  0  0  0
  8  7  2  0  0  0  0
  9  7  1  0  0  0  0
 10  9  1  0  0  0  0
 11 10  1  0  0  0  0
 12 11  1  0  0  0  0
 13 12  1  0  0  0  0
 14 13  1  0  0  0  0
 14 11  1  0  0  0  0
 14  9  1  0  0  0  0
 15  4  1  0  0  0  0
 16 15  2  0  0  0  0
 17 15  1  0  0  0  0
 18 17  1  0  0  0  0
 19 18  1  0  0  0  0
 20 19  2  0  0  0  0
 21 19  1  0  0  0  0
 22 21  1  0  0  0  0
 23 22  1  0  0  0  0
 24 23  1  0  0  0  0
 25 24  1  0  0  0  0
 26 18  1  0  0  0  0
 27 26  1  0  0  0  0
 28 26  1  0  0  0  0
  1 29  1  0  0  0  0
  1 30  1  0  0  0  0
  1 31  1  0  0  0  0
  5 32  1  0  0  0  0
  5 33  1  0  0  0  0
  6 34  1  0  0  0  0
  9 35  1  0  0  0  0
 10 36  1  0  0  0  0
 11 37  1  0  0  0  0
 12 38  1  0  0  0  0
 12 39  1  0  0  0  0
 13 40  1  0  0  0  0
 13 41  1  0  0  0  0
 14 42  1  0  0  0  0
 17 43  1  0  0  0  0
 18 44  1  0  0  0  0
 21 45  1  0  0  0  0
 22 46  1  0  0  0  0
 22 47  1  0  0  0  0
 23 48  1  0  0  0  0
 23 49  1  0  0  0  0
 24 50  1  0  0  0  0
 24 51  1  0  0  0  0
 25 52  1  0  0  0  0
 25 53  1  0  0  0  0
 26 54  1  0  0  0  0
 27 55  1  0  0  0  0
 27 56  1  0  0  0  0
 27 57  1  0  0  0  0
 28 58  1  0  0  0  0
 28 59  1  0  0  0  0
 28 60  1  0  0  0  0
M  END
>  <energy>
114.76452941076809

$$$$
