COC(=O)C12OC3CC1(CO)C(O)(CC=C=C(C)C)CCC(C)(C=CC(=O)C(C)CCl)C32
                    3D

 67 69  0  0  0  0  0  0  0  0999 V2000
    4.8934   -0.9517   -2.2076 C   0  0  0  0  0  0  0  0  0  0  0  0
    3.9747   -1.4400   -1.2252 O   0  0  0  0  0  0  0  0  0  0  0  0
    3.0273   -0.5304   -0.8071 C   0  0  0  0  0  0  0  0  0  0  0  0
    3.0151    0.6226   -1.2329 O   0  0  0  0  0  0  0  0  0  0  0  0
    2.0373   -1.1820    0.2477 C   0  0  0  0  0  0  0  0  0  0  0  0
    2.6965   -2.3542    1.0429 O   0  0  0  0  0  0  0  0  0  0  0  0
    1.4968   -2.0918    1.9127 C   0  0  0  0  0  0  0  0  0  0  0  0
    0.3853   -2.6333    1.0380 C   0  0  0  0  0  0  0  0  0  0  0  0
    0.6814   -1.7996   -0.2361 C   0  0  0  0  0  0  0  0  0  0  0  0
    1.0231   -2.7170   -1.4289 C   0  0  0  0  0  0  0  0  0  0  0  0
    1.1954   -1.9302   -2.6046 O   0  0  0  0  0  0  0  0  0  0  0  0
   -0.4214   -0.7270   -0.5237 C   0  0  0  0  0  0  0  0  0  0  0  0
    0.1631    0.3488   -1.2729 O   0  0  0  0  0  0  0  0  0  0  0  0
   -1.5931   -1.2667   -1.4156 C   0  0  0  0  0  0  0  0  0  0  0  0
   -2.3921   -2.4034   -0.8516 C   0  0  0  0  0  0  0  0  0  0  0  0
   -3.6268   -2.3147   -0.4442 C   0  0  0  0  0  0  0  0  0  0  0  0
   -4.8699   -2.2459   -0.0558 C   0  0  0  0  0  0  0  0  0  0  0  0
   -5.5616   -3.4129    0.5918 C   0  0  0  0  0  0  0  0  0  0  0  0
   -5.7108   -1.0307   -0.3247 C   0  0  0  0  0  0  0  0  0  0  0  0
   -1.0552   -0.1052    0.7469 C   0  0  0  0  0  0  0  0  0  0  0  0
   -0.2623    0.9571    1.5015 C   0  0  0  0  0  0  0  0  0  0  0  0
    1.1826    0.7667    2.0120 C   0  0  0  0  0  0  0  0  0  0  0  0
    1.1826    0.8703    3.5617 C   0  0  0  0  0  0  0  0  0  0  0  0
    2.1612    1.8561    1.4950 C   0  0  0  0  0  0  0  0  0  0  0  0
    2.0342    3.0980    0.9928 C   0  0  0  0  0  0  0  0  0  0  0  0
    0.8122    3.9379    0.9075 C   0  0  0  0  0  0  0  0  0  0  0  0
    0.1437    4.1128    1.9284 O   0  0  0  0  0  0  0  0  0  0  0  0
    0.4047    4.5902   -0.4233 C   0  0  0  0  0  0  0  0  0  0  0  0
   -0.8842    3.9332   -0.9317 C   0  0  0  0  0  0  0  0  0  0  0  0
    1.5037    4.6151   -1.4851 C   0  0  0  0  0  0  0  0  0  0  0  0
    1.0445    5.5906   -2.9080 Cl  0  0  0  0  0  0  0  0  0  0  0  0
    1.8799   -0.5700    1.6795 C   0  0  0  0  0  0  0  0  0  0  0  0
    5.7092   -1.6758   -2.3046 H   0  0  0  0  0  0  0  0  0  0  0  0
    4.3946   -0.8666   -3.1806 H   0  0  0  0  0  0  0  0  0  0  0  0
    5.3229    0.0110   -1.9083 H   0  0  0  0  0  0  0  0  0  0  0  0
    1.6404   -2.4940    2.9169 H   0  0  0  0  0  0  0  0  0  0  0  0
   -0.5927   -2.5331    1.4934 H   0  0  0  0  0  0  0  0  0  0  0  0
    0.5288   -3.7082    0.8665 H   0  0  0  0  0  0  0  0  0  0  0  0
    1.9462   -3.2816   -1.2595 H   0  0  0  0  0  0  0  0  0  0  0  0
    0.2352   -3.4473   -1.6243 H   0  0  0  0  0  0  0  0  0  0  0  0
    1.5370   -2.5207   -3.3002 H   0  0  0  0  0  0  0  0  0  0  0  0
    0.5105   -0.0301   -2.1100 H   0  0  0  0  0  0  0  0  0  0  0  0
   -2.2638   -0.4273   -1.6643 H   0  0  0  0  0  0  0  0  0  0  0  0
   -1.2190   -1.5733   -2.3997 H   0  0  0  0  0  0  0  0  0  0  0  0
   -1.9505   -3.3910   -0.8863 H   0  0  0  0  0  0  0  0  0  0  0  0
   -6.4783   -3.1043    1.1091 H   0  0  0  0  0  0  0  0  0  0  0  0
   -5.8288   -4.1641   -0.1607 H   0  0  0  0  0  0  0  0  0  0  0  0
   -4.9075   -3.8818    1.3352 H   0  0  0  0  0  0  0  0  0  0  0  0
   -5.2579   -0.1495    0.1391 H   0  0  0  0  0  0  0  0  0  0  0  0
   -6.7227   -1.1360    0.0821 H   0  0  0  0  0  0  0  0  0  0  0  0
   -5.8017   -0.8519   -1.4010 H   0  0  0  0  0  0  0  0  0  0  0  0
   -1.9652    0.4262    0.4236 H   0  0  0  0  0  0  0  0  0  0  0  0
   -1.4504   -0.8431    1.4487 H   0  0  0  0  0  0  0  0  0  0  0  0
   -0.3108    1.8275    0.8499 H   0  0  0  0  0  0  0  0  0  0  0  0
   -0.8979    1.2443    2.3545 H   0  0  0  0  0  0  0  0  0  0  0  0
    0.7503    1.8195    3.8961 H   0  0  0  0  0  0  0  0  0  0  0  0
    0.6000    0.0539    4.0084 H   0  0  0  0  0  0  0  0  0  0  0  0
    2.1949    0.8124    3.9789 H   0  0  0  0  0  0  0  0  0  0  0  0
    3.2073    1.5403    1.5360 H   0  0  0  0  0  0  0  0  0  0  0  0
    2.9322    3.5825    0.6263 H   0  0  0  0  0  0  0  0  0  0  0  0
    0.1764    5.6371   -0.1662 H   0  0  0  0  0  0  0  0  0  0  0  0
   -0.6893    2.9229   -1.3130 H   0  0  0  0  0  0  0  0  0  0  0  0
   -1.6239    3.8481   -0.1278 H   0  0  0  0  0  0  0  0  0  0  0  0
   -1.3430    4.5218   -1.7345 H   0  0  0  0  0  0  0  0  0  0  0  0
    1.7556    3.6155   -1.8472 H   0  0  0  0  0  0  0  0  0  0  0  0
    2.4169    5.0674   -1.0926 H   0  0  0  0  0  0  0  0  0  0  0  0
    2.8839   -0.4432    2.1369 H   0  0  0  0  0  0  0  0  0  0  0  0
  2  1  1  0  0  0  0
  3  2  1  0  0  0  0
  4  3  2  0  0  0  0
  5  3  1  0  0  0  0
  6  5  1  0  0  0  0
  7  6  1  0  0  0  0
  8  7  1  0  0  0  0
  9  8  1  0  0  0  0
  9  5  1  0  0  0  0
 10  9  1  0  0  0  0
 11 10  1  0  0  0  0
 12  9  1  0  0  0  0
 13 12  1  0  0  0  0
 14 12  1  0  0  0  0
 15 14  1  0  0  0  0
 16 15  2  0  0  0  0
 17 16  2  0  0  0  0
 18 17  1  0  0  0  0
 19 17  1  0  0  0  0
 20 12  1  0  0  0  0
 21 20  1  0  0  0  0
 22 21  1  0  0  0  0
 23 22  1  0  0  0  0
 24 22  1  0  0  0  0
 25 24  2  0  0  0  0
 26 25  1  0  0  0  0
 27 26  2  0  0  0  0
 28 26  1  0  0  0  0
 29 28  1  0  0  0  0
 30 28  1  0  0  0  0
 31 30  1  0  0  0  0
 32 22  1  0  0  0  0
 32  7  1  0  0  0  0
 32  5  1  0  0  0  0
  1 33  1  0  0  0  0
  1 34  1  0  0  0  0
  1 35  1  0  0  0  0
  7 36  1  0  0  0  0
  8 37  1  0  0  0  0
  8 38  1  0  0  0  0
 10 39  1  0  0  0  0
 10 40  1  0  0  0  0
 11 41  1  0  0  0  0
 13 42  1  0  0  0  0
 14 43  1  0  0  0  0
 14 44  1  0  0  0  0
 15 45  1  0  0  0  0
 18 46  1  0  0  0  0
 18 47  1  0  0  0  0
 18 48  1  0  0  0  0
 19 49  1  0  0  0  0
 19 50  1  0  0  0  0
 19 51  1  0  0  0  0
 20 52  1  0  0  0  0
 20 53  1  0  0  0  0
 21 54  1  0  0  0  0
 21 55  1  0  0  0  0
 23 56  1  0  0  0  0
 23 57  1  0  0  0  0
 23 58  1  0  0  0  0
 24 59  1  0  0  0  0
 25 60  1  0  0  0  0
 28 61  1  0  0  0  0
 29 62  1  0  0  0  0
 29 63  1  0  0  0  0
 29 64  1  0  0  0  0
 30 65  1  0  0  0  0
 30 66  1  0  0  0  0
 32 67  1  0  0  0  0
M  END
>  <energy>
126.3624720506275

$$$$
