CNC(=O)C(C)(C)C(N)C(=O)N(C)CC(CCC1CCNCC1)C(CC1CCCCC1)NC(=O)C1(C(=O)NCCCCN)CCCCO1
                    3D

115117  0  0  0  0  0  0  0  0999 V2000
   -2.4525   -4.6317   -2.2023 C   0  0  0  0  0  0  0  0  0  0  0  0
   -1.2808   -4.8329   -1.3789 N   0  0  0  0  0  0  0  0  0  0  0  0
   -1.3720   -4.6277   -0.0093 C   0  0  0  0  0  0  0  0  0  0  0  0
   -2.3997   -4.1912    0.4963 O   0  0  0  0  0  0  0  0  0  0  0  0
   -0.1034   -4.9326    0.8158 C   0  0  0  0  0  0  0  0  0  0  0  0
    0.3326   -6.3869    0.4924 C   0  0  0  0  0  0  0  0  0  0  0  0
   -0.4766   -4.9257    2.3160 C   0  0  0  0  0  0  0  0  0  0  0  0
    1.0890   -3.9470    0.5399 C   0  0  0  0  0  0  0  0  0  0  0  0
    1.3863   -3.6126   -0.8725 N   0  0  0  0  0  0  0  0  0  0  0  0
    1.2393   -2.6852    1.4555 C   0  0  0  0  0  0  0  0  0  0  0  0
    2.2317   -2.6236    2.1972 O   0  0  0  0  0  0  0  0  0  0  0  0
    0.3184   -1.6482    1.4549 N   0  0  0  0  0  0  0  0  0  0  0  0
    0.3052   -0.7709    2.6139 C   0  0  0  0  0  0  0  0  0  0  0  0
   -0.7938   -1.4998    0.5301 C   0  0  0  0  0  0  0  0  0  0  0  0
   -1.0469   -0.0656   -0.0149 C   0  0  0  0  0  0  0  0  0  0  0  0
   -2.5523    0.0006   -0.4045 C   0  0  0  0  0  0  0  0  0  0  0  0
   -3.4419    0.3286    0.8152 C   0  0  0  0  0  0  0  0  0  0  0  0
   -3.5438    1.8531    1.0381 C   0  0  0  0  0  0  0  0  0  0  0  0
   -3.4927    2.2159    2.5272 C   0  0  0  0  0  0  0  0  0  0  0  0
   -3.6592    3.7220    2.7197 C   0  0  0  0  0  0  0  0  0  0  0  0
   -4.9150    4.1939    2.1342 N   0  0  0  0  0  0  0  0  0  0  0  0
   -4.9813    3.9087    0.6992 C   0  0  0  0  0  0  0  0  0  0  0  0
   -4.8339    2.4161    0.4171 C   0  0  0  0  0  0  0  0  0  0  0  0
   -0.0032    0.2664   -1.1448 C   0  0  0  0  0  0  0  0  0  0  0  0
   -0.5413    1.0862   -2.3442 C   0  0  0  0  0  0  0  0  0  0  0  0
   -1.2154    0.2389   -3.4476 C   0  0  0  0  0  0  0  0  0  0  0  0
   -2.2085    1.0977   -4.2513 C   0  0  0  0  0  0  0  0  0  0  0  0
   -2.8626    0.3062   -5.3835 C   0  0  0  0  0  0  0  0  0  0  0  0
   -1.8188   -0.2950   -6.3181 C   0  0  0  0  0  0  0  0  0  0  0  0
   -0.8010   -1.1339   -5.5518 C   0  0  0  0  0  0  0  0  0  0  0  0
   -0.1637   -0.3486   -4.4055 C   0  0  0  0  0  0  0  0  0  0  0  0
    1.2152    0.9316   -0.6153 N   0  0  0  0  0  0  0  0  0  0  0  0
    1.2286    2.2237   -0.1114 C   0  0  0  0  0  0  0  0  0  0  0  0
    0.1681    2.7952    0.1466 O   0  0  0  0  0  0  0  0  0  0  0  0
    2.6098    2.9593   -0.0013 C   0  0  0  0  0  0  0  0  0  0  0  0
    2.6454    3.8026    1.3209 C   0  0  0  0  0  0  0  0  0  0  0  0
    2.6391    5.0422    1.3279 O   0  0  0  0  0  0  0  0  0  0  0  0
    2.7320    3.2373    2.5582 N   0  0  0  0  0  0  0  0  0  0  0  0
    2.8582    1.8630    3.0012 C   0  0  0  0  0  0  0  0  0  0  0  0
    4.2624    1.6100    3.5438 C   0  0  0  0  0  0  0  0  0  0  0  0
    4.4867    0.1745    4.0197 C   0  0  0  0  0  0  0  0  0  0  0  0
    3.5811   -0.3001    5.1575 C   0  0  0  0  0  0  0  0  0  0  0  0
    3.7056    0.5183    6.3580 N   0  0  0  0  0  0  0  0  0  0  0  0
    3.8964    2.1081   -0.0938 C   0  0  0  0  0  0  0  0  0  0  0  0
    4.3448    1.7530   -1.5135 C   0  0  0  0  0  0  0  0  0  0  0  0
    4.2784    2.9497   -2.4402 C   0  0  0  0  0  0  0  0  0  0  0  0
    2.8992    3.5676   -2.3555 C   0  0  0  0  0  0  0  0  0  0  0  0
    2.6346    3.9883   -1.0298 O   0  0  0  0  0  0  0  0  0  0  0  0
   -2.1635   -4.7035   -3.2532 H   0  0  0  0  0  0  0  0  0  0  0  0
   -2.8844   -3.6483   -2.0020 H   0  0  0  0  0  0  0  0  0  0  0  0
   -3.1874   -5.4071   -1.9675 H   0  0  0  0  0  0  0  0  0  0  0  0
   -0.6308   -5.5362   -1.7021 H   0  0  0  0  0  0  0  0  0  0  0  0
    1.0583   -6.7553    1.2255 H   0  0  0  0  0  0  0  0  0  0  0  0
    0.7991   -6.4740   -0.4931 H   0  0  0  0  0  0  0  0  0  0  0  0
   -0.5261   -7.0678    0.5107 H   0  0  0  0  0  0  0  0  0  0  0  0
    0.4025   -5.1009    2.9446 H   0  0  0  0  0  0  0  0  0  0  0  0
   -1.2013   -5.7153    2.5410 H   0  0  0  0  0  0  0  0  0  0  0  0
   -0.9367   -3.9838    2.6265 H   0  0  0  0  0  0  0  0  0  0  0  0
    1.9852   -4.5162    0.8498 H   0  0  0  0  0  0  0  0  0  0  0  0
    1.8985   -4.3850   -1.2940 H   0  0  0  0  0  0  0  0  0  0  0  0
    0.5175   -3.5252   -1.4032 H   0  0  0  0  0  0  0  0  0  0  0  0
    1.0263   -1.0729    3.3727 H   0  0  0  0  0  0  0  0  0  0  0  0
   -0.6881   -0.8017    3.0699 H   0  0  0  0  0  0  0  0  0  0  0  0
    0.5303    0.2483    2.3029 H   0  0  0  0  0  0  0  0  0  0  0  0
   -0.6731   -2.1629   -0.3214 H   0  0  0  0  0  0  0  0  0  0  0  0
   -1.6675   -1.8529    1.0825 H   0  0  0  0  0  0  0  0  0  0  0  0
   -0.9128    0.6576    0.7934 H   0  0  0  0  0  0  0  0  0  0  0  0
   -2.7648    0.7462   -1.1706 H   0  0  0  0  0  0  0  0  0  0  0  0
   -2.8645   -0.9637   -0.8218 H   0  0  0  0  0  0  0  0  0  0  0  0
   -3.0576   -0.1712    1.7138 H   0  0  0  0  0  0  0  0  0  0  0  0
   -4.4404   -0.0897    0.6403 H   0  0  0  0  0  0  0  0  0  0  0  0
   -2.6902    2.3471    0.5549 H   0  0  0  0  0  0  0  0  0  0  0  0
   -4.2786    1.6816    3.0767 H   0  0  0  0  0  0  0  0  0  0  0  0
   -2.5338    1.8988    2.9534 H   0  0  0  0  0  0  0  0  0  0  0  0
   -2.8104    4.2596    2.2789 H   0  0  0  0  0  0  0  0  0  0  0  0
   -3.6598    3.9466    3.7927 H   0  0  0  0  0  0  0  0  0  0  0  0
   -4.9816    5.1994    2.2709 H   0  0  0  0  0  0  0  0  0  0  0  0
   -4.2103    4.4752    0.1626 H   0  0  0  0  0  0  0  0  0  0  0  0
   -5.9520    4.2470    0.3189 H   0  0  0  0  0  0  0  0  0  0  0  0
   -4.8374    2.2471   -0.6651 H   0  0  0  0  0  0  0  0  0  0  0  0
   -5.7069    1.8860    0.8207 H   0  0  0  0  0  0  0  0  0  0  0  0
    0.3820   -0.6781   -1.5490 H   0  0  0  0  0  0  0  0  0  0  0  0
    0.2838    1.6350   -2.8111 H   0  0  0  0  0  0  0  0  0  0  0  0
   -1.2158    1.8677   -1.9773 H   0  0  0  0  0  0  0  0  0  0  0  0
   -1.7712   -0.5898   -2.9913 H   0  0  0  0  0  0  0  0  0  0  0  0
   -2.9919    1.4870   -3.5905 H   0  0  0  0  0  0  0  0  0  0  0  0
   -1.6892    1.9671   -4.6746 H   0  0  0  0  0  0  0  0  0  0  0  0
   -3.5308    0.9614   -5.9545 H   0  0  0  0  0  0  0  0  0  0  0  0
   -3.4859   -0.4927   -4.9611 H   0  0  0  0  0  0  0  0  0  0  0  0
   -1.3021    0.5092   -6.8578 H   0  0  0  0  0  0  0  0  0  0  0  0
   -2.3131   -0.9155   -7.0735 H   0  0  0  0  0  0  0  0  0  0  0  0
   -0.0192   -1.4725   -6.2415 H   0  0  0  0  0  0  0  0  0  0  0  0
   -1.2878   -2.0321   -5.1526 H   0  0  0  0  0  0  0  0  0  0  0  0
    0.4375    0.4663   -4.8306 H   0  0  0  0  0  0  0  0  0  0  0  0
    0.5277   -1.0014   -3.8626 H   0  0  0  0  0  0  0  0  0  0  0  0
    2.0749    0.4019   -0.6619 H   0  0  0  0  0  0  0  0  0  0  0  0
    2.7425    3.9544    3.2757 H   0  0  0  0  0  0  0  0  0  0  0  0
    2.6148    1.1785    2.1908 H   0  0  0  0  0  0  0  0  0  0  0  0
    2.1112    1.7321    3.7900 H   0  0  0  0  0  0  0  0  0  0  0  0
    4.4745    2.3116    4.3590 H   0  0  0  0  0  0  0  0  0  0  0  0
    4.9967    1.8364    2.7582 H   0  0  0  0  0  0  0  0  0  0  0  0
    4.3582   -0.5037    3.1661 H   0  0  0  0  0  0  0  0  0  0  0  0
    5.5330    0.0794    4.3389 H   0  0  0  0  0  0  0  0  0  0  0  0
    3.8583   -1.3299    5.4103 H   0  0  0  0  0  0  0  0  0  0  0  0
    2.5356   -0.3196    4.8389 H   0  0  0  0  0  0  0  0  0  0  0  0
    3.1794    0.0823    7.1149 H   0  0  0  0  0  0  0  0  0  0  0  0
    3.2770    1.4311    6.2106 H   0  0  0  0  0  0  0  0  0  0  0  0
    4.7265    2.6643    0.3679 H   0  0  0  0  0  0  0  0  0  0  0  0
    3.8110    1.1730    0.4657 H   0  0  0  0  0  0  0  0  0  0  0  0
    5.3686    1.3663   -1.4916 H   0  0  0  0  0  0  0  0  0  0  0  0
    3.7229    0.9476   -1.9189 H   0  0  0  0  0  0  0  0  0  0  0  0
    4.4994    2.6535   -3.4708 H   0  0  0  0  0  0  0  0  0  0  0  0
    5.0321    3.6866   -2.1351 H   0  0  0  0  0  0  0  0  0  0  0  0
    2.1208    2.8816   -2.6984 H   0  0  0  0  0  0  0  0  0  0  0  0
    2.8529    4.4541   -2.9984 H   0  0  0  0  0  0  0  0  0  0  0  0
  2  1  1  0  0  0  0
  3  2  1  0  0  0  0
  4  3  2  0  0  0  0
  5  3  1  0  0  0  0
  6  5  1  0  0  0  0
  7  5  1  0  0  0  0
  8  5  1  0  0  0  0
  9  8  1  0  0  0  0
 10  8  1  0  0  0  0
 11 10  2  0  0  0  0
 12 10  1  0  0  0  0
 13 12  1  0  0  0  0
 14 12  1  0  0  0  0
 15 14  1  0  0  0  0
 16 15  1  0  0  0  0
 17 16  1  0  0  0  0
 18 17  1  0  0  0  0
 19 18  1  0  0  0  0
 20 19  1  0  0  0  0
 21 20  1  0  0  0  0
 22 21  1  0  0  0  0
 23 22  1  0  0  0  0
 23 18  1  0  0  0  0
 24 15  1  0  0  0  0
 25 24  1  0  0  0  0
 26 25  1  0  0  0  0
 27 26  1  0  0  0  0
 28 27  1  0  0  0  0
 29 28  1  0  0  0  0
 30 29  1  0  0  0  0
 31 30  1  0  0  0  0
 31 26  1  0  0  0  0
 32 24  1  0  0  0  0
 33 32  1  0  0  0  0
 34 33  2  0  0  0  0
 35 33  1  0  0  0  0
 36 35  1  0  0  0  0
 37 36  2  0  0  0  0
 38 36  1  0  0  0  0
 39 38  1  0  0  0  0
 40 39  1  0  0  0  0
 41 40  1  0  0  0  0
 42 41  1  0  0  0  0
 43 42  1  0  0  0  0
 44 35  1  0  0  0  0
 45 44  1  0  0  0  0
 46 45  1  0  0  0  0
 47 46  1  0  0  0  0
 48 47  1  0  0  0  0
 48 35  1  0  0  0  0
  1 49  1  0  0  0  0
  1 50  1  0  0  0  0
  1 51  1  0  0  0  0
  2 52  1  0  0  0  0
  6 53  1  0  0  0  0
  6 54  1  0  0  0  0
  6 55  1  0  0  0  0
  7 56  1  0  0  0  0
  7 57  1  0  0  0  0
  7 58  1  0  0  0  0
  8 59  1  0  0  0  0
  9 60  1  0  0  0  0
  9 61  1  0  0  0  0
 13 62  1  0  0  0  0
 13 63  1  0  0  0  0
 13 64  1  0  0  0  0
 14 65  1  0  0  0  0
 14 66  1  0  0  0  0
 15 67  1  0  0  0  0
 16 68  1  0  0  0  0
 16 69  1  0  0  0  0
 17 70  1  0  0  0  0
 17 71  1  0  0  0  0
 18 72  1  0  0  0  0
 19 73  1  0  0  0  0
 19 74  1  0  0  0  0
 20 75  1  0  0  0  0
 20 76  1  0  0  0  0
 21 77  1  0  0  0  0
 22 78  1  0  0  0  0
 22 79  1  0  0  0  0
 23 80  1  0  0  0  0
 23 81  1  0  0  0  0
 24 82  1  0  0  0  0
 25 83  1  0  0  0  0
 25 84  1  0  0  0  0
 26 85  1  0  0  0  0
 27 86  1  0  0  0  0
 27 87  1  0  0  0  0
 28 88  1  0  0  0  0
 28 89  1  0  0  0  0
 29 90  1  0  0  0  0
 29 91  1  0  0  0  0
 30 92  1  0  0  0  0
 30 93  1  0  0  0  0
 31 94  1  0  0  0  0
 31 95  1  0  0  0  0
 32 96  1  0  0  0  0
 38 97  1  0  0  0  0
 39 98  1  0  0  0  0
 39 99  1  0  0  0  0
 40100  1  0  0  0  0
 40101  1  0  0  0  0
 41102  1  0  0  0  0
 41103  1  0  0  0  0
 42104  1  0  0  0  0
 42105  1  0  0  0  0
 43106  1  0  0  0  0
 43107  1  0  0  0  0
 44108  1  0  0  0  0
 44109  1  0  0  0  0
 45110  1  0  0  0  0
 45111  1  0  0  0  0
 46112  1  0  0  0  0
 46113  1  0  0  0  0
 47114  1  0  0  0  0
 47115  1  0  0  0  0
M  END
>  <energy>
115.39578481168364

$$$$
