O=C(O)CCC12CC3CC(NC(=O)C4CCNCC4)CC(C1)C32
                    3D

 51 54  0  0  0  0  0  0  0  0999 V2000
    5.7921    2.9825    2.8159 O   0  0  0  0  0  0  0  0  0  0  0  0
    4.5982    2.8475    2.5934 C   0  0  0  0  0  0  0  0  0  0  0  0
    3.6482    3.3764    3.3929 O   0  0  0  0  0  0  0  0  0  0  0  0
    4.0404    2.0611    1.4363 C   0  0  0  0  0  0  0  0  0  0  0  0
    3.8376    0.6009    1.8180 C   0  0  0  0  0  0  0  0  0  0  0  0
    3.1460   -0.2101    0.7372 C   0  0  0  0  0  0  0  0  0  0  0  0
    2.7450   -1.6817    1.1437 C   0  0  0  0  0  0  0  0  0  0  0  0
    1.2162   -1.2625    1.1169 C   0  0  0  0  0  0  0  0  0  0  0  0
    0.1822   -1.9822    0.2162 C   0  0  0  0  0  0  0  0  0  0  0  0
   -0.4340   -1.0340   -0.8817 C   0  0  0  0  0  0  0  0  0  0  0  0
   -1.2726   -1.8135   -1.7869 N   0  0  0  0  0  0  0  0  0  0  0  0
   -2.5528   -1.6508   -2.2082 C   0  0  0  0  0  0  0  0  0  0  0  0
   -2.9131   -2.3240   -3.1788 O   0  0  0  0  0  0  0  0  0  0  0  0
   -3.5421   -0.7193   -1.5249 C   0  0  0  0  0  0  0  0  0  0  0  0
   -3.2393    0.7662   -1.7308 C   0  0  0  0  0  0  0  0  0  0  0  0
   -4.2516    1.6347   -0.9863 C   0  0  0  0  0  0  0  0  0  0  0  0
   -4.3035    1.2785    0.4333 N   0  0  0  0  0  0  0  0  0  0  0  0
   -4.7400   -0.1074    0.6132 C   0  0  0  0  0  0  0  0  0  0  0  0
   -3.7714   -1.0797   -0.0540 C   0  0  0  0  0  0  0  0  0  0  0  0
    0.6260   -0.2180   -1.7230 C   0  0  0  0  0  0  0  0  0  0  0  0
    1.9631   -0.4553   -1.0668 C   0  0  0  0  0  0  0  0  0  0  0  0
    3.3851    0.0884   -0.8034 C   0  0  0  0  0  0  0  0  0  0  0  0
    1.6786   -0.0105    0.4017 C   0  0  0  0  0  0  0  0  0  0  0  0
    2.7350    3.1847    3.1091 H   0  0  0  0  0  0  0  0  0  0  0  0
    4.7530    2.1551    0.6090 H   0  0  0  0  0  0  0  0  0  0  0  0
    3.1130    2.5296    1.0909 H   0  0  0  0  0  0  0  0  0  0  0  0
    3.2673    0.5409    2.7540 H   0  0  0  0  0  0  0  0  0  0  0  0
    4.8168    0.1541    2.0319 H   0  0  0  0  0  0  0  0  0  0  0  0
    3.0457   -2.4629    0.4374 H   0  0  0  0  0  0  0  0  0  0  0  0
    3.0911   -1.9956    2.1347 H   0  0  0  0  0  0  0  0  0  0  0  0
    0.8164   -1.0483    2.1162 H   0  0  0  0  0  0  0  0  0  0  0  0
   -0.6297   -2.3747    0.8404 H   0  0  0  0  0  0  0  0  0  0  0  0
    0.6401   -2.8586   -0.2603 H   0  0  0  0  0  0  0  0  0  0  0  0
   -1.0470   -0.3020   -0.3539 H   0  0  0  0  0  0  0  0  0  0  0  0
   -0.7881   -2.4925   -2.3641 H   0  0  0  0  0  0  0  0  0  0  0  0
   -4.5028   -0.9050   -2.0308 H   0  0  0  0  0  0  0  0  0  0  0  0
   -3.2707    1.0035   -2.8017 H   0  0  0  0  0  0  0  0  0  0  0  0
   -2.2324    1.0288   -1.3957 H   0  0  0  0  0  0  0  0  0  0  0  0
   -3.9596    2.6870   -1.0766 H   0  0  0  0  0  0  0  0  0  0  0  0
   -5.2471    1.5409   -1.4389 H   0  0  0  0  0  0  0  0  0  0  0  0
   -4.9652    1.8953    0.9065 H   0  0  0  0  0  0  0  0  0  0  0  0
   -4.7891   -0.3292    1.6858 H   0  0  0  0  0  0  0  0  0  0  0  0
   -5.7531   -0.2432    0.2154 H   0  0  0  0  0  0  0  0  0  0  0  0
   -2.8350   -1.0870    0.5101 H   0  0  0  0  0  0  0  0  0  0  0  0
   -4.1694   -2.1001    0.0161 H   0  0  0  0  0  0  0  0  0  0  0  0
    0.6498   -0.5491   -2.7678 H   0  0  0  0  0  0  0  0  0  0  0  0
    0.3569    0.8449   -1.7327 H   0  0  0  0  0  0  0  0  0  0  0  0
    2.1421   -1.5220   -1.2922 H   0  0  0  0  0  0  0  0  0  0  0  0
    3.5033    1.1430   -1.0703 H   0  0  0  0  0  0  0  0  0  0  0  0
    4.2036   -0.4813   -1.2525 H   0  0  0  0  0  0  0  0  0  0  0  0
    1.2170    0.9568    0.6062 H   0  0  0  0  0  0  0  0  0  0  0  0
  2  1  2  0  0  0  0
  3  2  1  0  0  0  0
  4  2  1  0  0  0  0
  5  4  1  0  0  0  0
  6  5  1  0  0  0  0
  7  6  1  0  0  0  0
  8  7  1  0  0  0  0
  9  8  1  0  0  0  0
 10  9  1  0  0  0  0
 11 10  1  0  0  0  0
 12 11  1  0  0  0  0
 13 12  2  0  0  0  0
 14 12  1  0  0  0  0
 15 14  1  0  0  0  0
 16 15  1  0  0  0  0
 17 16  1  0  0  0  0
 18 17  1  0  0  0  0
 19 18  1  0  0  0  0
 19 14  1  0  0  0  0
 20 10  1  0  0  0  0
 21 20  1  0  0  0  0
 22 21  1  0  0  0  0
 22  6  1  0  0  0  0
 23 21  1  0  0  0  0
 23  8  1  0  0  0  0
 23  6  1  0  0  0  0
  3 24  1  0  0  0  0
  4 25  1  0  0  0  0
  4 26  1  0  0  0  0
  5 27  1  0  0  0  0
  5 28  1  0  0  0  0
  7 29  1  0  0  0  0
  7 30  1  0  0  0  0
  8 31  1  0  0  0  0
  9 32  1  0  0  0  0
  9 33  1  0  0  0  0
 10 34  1  0  0  0  0
 11 35  1  0  0  0  0
 14 36  1  0  0  0  0
 15 37  1  0  0  0  0
 15 38  1  0  0  0  0
 16 39  1  0  0  0  0
 16 40  1  0  0  0  0
 17 41  1  0  0  0  0
 18 42  1  0  0  0  0
 18 43  1  0  0  0  0
 19 44  1  0  0  0  0
 19 45  1  0  0  0  0
 20 46  1  0  0  0  0
 20 47  1  0  0  0  0
 21 48  1  0  0  0  0
 22 49  1  0  0  0  0
 22 50  1  0  0  0  0
 23 51  1  0  0  0  0
M  END
>  <energy>
27.563820113529367

$$$$
