C#CN=C(NCCC)NCC(=O)NC1CC2CC3C[N+](C)(C2)C3C(C)(O)C1
                    3D

 61 63  0  0  0  0  0  0  0  0999 V2000
   -2.2577   -3.8510    1.7581 C   0  0  0  0  0  0  0  0  0  0  0  0
   -2.2179   -2.6578    1.7143 C   0  0  0  0  0  0  0  0  0  0  0  0
   -2.1782   -1.3179    1.6505 N   0  0  0  0  0  0  0  0  0  0  0  0
   -2.9304   -0.6993    0.7969 C   0  0  0  0  0  0  0  0  0  0  0  0
   -3.8149   -1.2618   -0.0911 N   0  0  0  0  0  0  0  0  0  0  0  0
   -3.3170   -1.5290   -1.4435 C   0  0  0  0  0  0  0  0  0  0  0  0
   -4.3258   -1.1070   -2.5055 C   0  0  0  0  0  0  0  0  0  0  0  0
   -4.4857    0.4047   -2.5890 C   0  0  0  0  0  0  0  0  0  0  0  0
   -2.9117    0.6599    0.6386 N   0  0  0  0  0  0  0  0  0  0  0  0
   -2.3746    1.5318    1.6852 C   0  0  0  0  0  0  0  0  0  0  0  0
   -1.8519    2.8553    1.1231 C   0  0  0  0  0  0  0  0  0  0  0  0
   -2.4928    3.9061    1.2097 O   0  0  0  0  0  0  0  0  0  0  0  0
   -0.6155    2.8675    0.5098 N   0  0  0  0  0  0  0  0  0  0  0  0
    0.3126    1.7384    0.2920 C   0  0  0  0  0  0  0  0  0  0  0  0
    0.8526    1.8681   -1.1376 C   0  0  0  0  0  0  0  0  0  0  0  0
    2.0450    0.9990   -1.5566 C   0  0  0  0  0  0  0  0  0  0  0  0
    3.3836    1.5726   -1.0513 C   0  0  0  0  0  0  0  0  0  0  0  0
    4.0402    0.5980   -0.0979 C   0  0  0  0  0  0  0  0  0  0  0  0
    4.2293   -0.7331   -0.8562 C   0  0  0  0  0  0  0  0  0  0  0  0
    2.8490   -1.0886   -0.3833 N   0  3  0  0  0  0  0  0  0  0  0  0
    2.7927   -2.5544   -0.1035 C   0  0  0  0  0  0  0  0  0  0  0  0
    1.8218   -0.4981   -1.2813 C   0  0  0  0  0  0  0  0  0  0  0  0
    3.1275   -0.2530    0.8343 C   0  0  0  0  0  0  0  0  0  0  0  0
    2.0274    0.3262    1.7622 C   0  0  0  0  0  0  0  0  0  0  0  0
    1.0097   -0.7535    2.1275 C   0  0  0  0  0  0  0  0  0  0  0  0
    2.7477    0.6086    2.9878 O   0  0  0  0  0  0  0  0  0  0  0  0
    1.3830    1.6882    1.3903 C   0  0  0  0  0  0  0  0  0  0  0  0
   -2.3337   -4.9172    1.7672 H   0  0  0  0  0  0  0  0  0  0  0  0
   -4.1690   -2.1377    0.2883 H   0  0  0  0  0  0  0  0  0  0  0  0
   -2.3641   -1.0174   -1.6187 H   0  0  0  0  0  0  0  0  0  0  0  0
   -3.1153   -2.6024   -1.5382 H   0  0  0  0  0  0  0  0  0  0  0  0
   -3.9697   -1.4679   -3.4796 H   0  0  0  0  0  0  0  0  0  0  0  0
   -5.3023   -1.5757   -2.3276 H   0  0  0  0  0  0  0  0  0  0  0  0
   -5.1721    0.6664   -3.3981 H   0  0  0  0  0  0  0  0  0  0  0  0
   -3.5246    0.8853   -2.7907 H   0  0  0  0  0  0  0  0  0  0  0  0
   -4.8918    0.8149   -1.6621 H   0  0  0  0  0  0  0  0  0  0  0  0
   -3.8029    0.9881    0.2757 H   0  0  0  0  0  0  0  0  0  0  0  0
   -3.1254    1.7395    2.4588 H   0  0  0  0  0  0  0  0  0  0  0  0
   -1.5411    1.0462    2.1948 H   0  0  0  0  0  0  0  0  0  0  0  0
   -0.3536    3.7960    0.1940 H   0  0  0  0  0  0  0  0  0  0  0  0
   -0.2818    0.8307    0.3499 H   0  0  0  0  0  0  0  0  0  0  0  0
    0.0185    1.6365   -1.8160 H   0  0  0  0  0  0  0  0  0  0  0  0
    1.0998    2.9161   -1.3488 H   0  0  0  0  0  0  0  0  0  0  0  0
    2.0728    1.1073   -2.6482 H   0  0  0  0  0  0  0  0  0  0  0  0
    3.2767    2.5602   -0.5975 H   0  0  0  0  0  0  0  0  0  0  0  0
    4.0509    1.7288   -1.9093 H   0  0  0  0  0  0  0  0  0  0  0  0
    4.9413    0.9899    0.3765 H   0  0  0  0  0  0  0  0  0  0  0  0
    4.3705   -0.6763   -1.9405 H   0  0  0  0  0  0  0  0  0  0  0  0
    5.0220   -1.3816   -0.4609 H   0  0  0  0  0  0  0  0  0  0  0  0
    1.8179   -2.8039    0.3263 H   0  0  0  0  0  0  0  0  0  0  0  0
    3.5957   -2.8509    0.5800 H   0  0  0  0  0  0  0  0  0  0  0  0
    2.9089   -3.0787   -1.0599 H   0  0  0  0  0  0  0  0  0  0  0  0
    0.8463   -0.7101   -0.8414 H   0  0  0  0  0  0  0  0  0  0  0  0
    1.8757   -1.0642   -2.2181 H   0  0  0  0  0  0  0  0  0  0  0  0
    3.7686   -0.8503    1.5129 H   0  0  0  0  0  0  0  0  0  0  0  0
    0.4266   -1.0868    1.2691 H   0  0  0  0  0  0  0  0  0  0  0  0
    0.3217   -0.3983    2.8975 H   0  0  0  0  0  0  0  0  0  0  0  0
    1.5079   -1.6327    2.5481 H   0  0  0  0  0  0  0  0  0  0  0  0
    2.1038    0.7313    3.7101 H   0  0  0  0  0  0  0  0  0  0  0  0
    2.1631    2.4342    1.2123 H   0  0  0  0  0  0  0  0  0  0  0  0
    0.9105    2.0603    2.3110 H   0  0  0  0  0  0  0  0  0  0  0  0
  2  1  3  0  0  0  0
  3  2  1  0  0  0  0
  4  3  2  0  0  0  0
  5  4  1  0  0  0  0
  6  5  1  0  0  0  0
  7  6  1  0  0  0  0
  8  7  1  0  0  0  0
  9  4  1  0  0  0  0
 10  9  1  0  0  0  0
 11 10  1  0  0  0  0
 12 11  2  0  0  0  0
 13 11  1  0  0  0  0
 14 13  1  0  0  0  0
 15 14  1  0  0  0  0
 16 15  1  0  0  0  0
 17 16  1  0  0  0  0
 18 17  1  0  0  0  0
 19 18  1  0  0  0  0
 20 19  1  0  0  0  0
 21 20  1  0  0  0  0
 22 20  1  0  0  0  0
 22 16  1  0  0  0  0
 23 20  1  0  0  0  0
 23 18  1  0  0  0  0
 24 23  1  0  0  0  0
 25 24  1  0  0  0  0
 26 24  1  0  0  0  0
 27 24  1  0  0  0  0
 27 14  1  0  0  0  0
  1 28  1  0  0  0  0
  5 29  1  0  0  0  0
  6 30  1  0  0  0  0
  6 31  1  0  0  0  0
  7 32  1  0  0  0  0
  7 33  1  0  0  0  0
  8 34  1  0  0  0  0
  8 35  1  0  0  0  0
  8 36  1  0  0  0  0
  9 37  1  0  0  0  0
 10 38  1  0  0  0  0
 10 39  1  0  0  0  0
 13 40  1  0  0  0  0
 14 41  1  0  0  0  0
 15 42  1  0  0  0  0
 15 43  1  0  0  0  0
 16 44  1  0  0  0  0
 17 45  1  0  0  0  0
 17 46  1  0  0  0  0
 18 47  1  0  0  0  0
 19 48  1  0  0  0  0
 19 49  1  0  0  0  0
 21 50  1  0  0  0  0
 21 51  1  0  0  0  0
 21 52  1  0  0  0  0
 22 53  1  0  0  0  0
 22 54  1  0  0  0  0
 23 55  1  0  0  0  0
 25 56  1  0  0  0  0
 25 57  1  0  0  0  0
 25 58  1  0  0  0  0
 26 59  1  0  0  0  0
 27 60  1  0  0  0  0
 27 61  1  0  0  0  0
M  CHG  1  20   1
M  END
>  <energy>
6.0201670399547282

$$$$
