CCNC(=O)NC1Cc2c3[nH]c4c2NC=CC(F)=C(C)C32CC1C2(C)CC4
                    3D

 54 58  0  0  0  0  0  0  0  0999 V2000
   -5.4575   -1.6695   -1.8178 C   0  0  0  0  0  0  0  0  0  0  0  0
   -4.7830   -0.4937   -2.4910 C   0  0  0  0  0  0  0  0  0  0  0  0
   -3.7205    0.0216   -1.6553 N   0  0  0  0  0  0  0  0  0  0  0  0
   -2.8195    0.9173   -2.1518 C   0  0  0  0  0  0  0  0  0  0  0  0
   -2.8756    1.4027   -3.2777 O   0  0  0  0  0  0  0  0  0  0  0  0
   -1.7932    1.2394   -1.3160 N   0  0  0  0  0  0  0  0  0  0  0  0
   -1.4427    0.5663   -0.0705 C   0  0  0  0  0  0  0  0  0  0  0  0
   -1.0511   -0.9353   -0.2230 C   0  0  0  0  0  0  0  0  0  0  0  0
    0.3961   -1.1754   -0.3266 C   0  0  0  0  0  0  0  0  0  0  0  0
    1.4334   -0.5444    0.3152 C   0  0  0  0  0  0  0  0  0  0  0  0
    2.6224   -0.7108   -0.4324 N   0  0  0  0  0  0  0  0  0  0  0  0
    1.9466   -0.8588   -1.6161 C   0  0  0  0  0  0  0  0  0  0  0  0
    1.1957   -1.9787   -1.1277 C   0  0  0  0  0  0  0  0  0  0  0  0
    1.7976   -3.0846   -0.5050 N   0  0  0  0  0  0  0  0  0  0  0  0
    1.8900   -3.3125    0.9007 C   0  0  0  0  0  0  0  0  0  0  0  0
    2.1967   -2.6537    2.0476 C   0  0  0  0  0  0  0  0  0  0  0  0
    2.7107   -1.3398    2.5361 C   0  0  0  0  0  0  0  0  0  0  0  0
    3.6275   -1.5603    3.5185 F   0  0  0  0  0  0  0  0  0  0  0  0
    2.4201   -0.0093    2.3335 C   0  0  0  0  0  0  0  0  0  0  0  0
    3.1675    1.0247    3.1263 C   0  0  0  0  0  0  0  0  0  0  0  0
    1.3615    0.4454    1.3625 C   0  0  0  0  0  0  0  0  0  0  0  0
   -0.0016    0.7866    2.0046 C   0  0  0  0  0  0  0  0  0  0  0  0
   -0.4363    1.4795    0.6798 C   0  0  0  0  0  0  0  0  0  0  0  0
    1.1510    1.7338    0.3844 C   0  0  0  0  0  0  0  0  0  0  0  0
    1.5819    3.0939    0.9754 C   0  0  0  0  0  0  0  0  0  0  0  0
    1.6196    1.7507   -1.1843 C   0  0  0  0  0  0  0  0  0  0  0  0
    1.4988    0.5079   -2.1915 C   0  0  0  0  0  0  0  0  0  0  0  0
   -6.1818   -2.1333   -2.4915 H   0  0  0  0  0  0  0  0  0  0  0  0
   -4.7238   -2.4275   -1.5227 H   0  0  0  0  0  0  0  0  0  0  0  0
   -5.9817   -1.3525   -0.9110 H   0  0  0  0  0  0  0  0  0  0  0  0
   -4.3532   -0.8024   -3.4492 H   0  0  0  0  0  0  0  0  0  0  0  0
   -5.4911    0.3186   -2.6808 H   0  0  0  0  0  0  0  0  0  0  0  0
   -3.9563    0.1680   -0.6859 H   0  0  0  0  0  0  0  0  0  0  0  0
   -1.1101    1.8306   -1.7750 H   0  0  0  0  0  0  0  0  0  0  0  0
   -2.3658    0.5754    0.5258 H   0  0  0  0  0  0  0  0  0  0  0  0
   -1.4284   -1.4880    0.6478 H   0  0  0  0  0  0  0  0  0  0  0  0
   -1.5470   -1.3819   -1.0923 H   0  0  0  0  0  0  0  0  0  0  0  0
    3.4322   -0.1314   -0.2691 H   0  0  0  0  0  0  0  0  0  0  0  0
    1.6480   -3.9577   -1.0024 H   0  0  0  0  0  0  0  0  0  0  0  0
    1.6394   -4.3678    1.0421 H   0  0  0  0  0  0  0  0  0  0  0  0
    2.1426   -3.2996    2.9344 H   0  0  0  0  0  0  0  0  0  0  0  0
    3.4343    1.8839    2.5053 H   0  0  0  0  0  0  0  0  0  0  0  0
    4.1138    0.6330    3.5243 H   0  0  0  0  0  0  0  0  0  0  0  0
    2.5516    1.3486    3.9729 H   0  0  0  0  0  0  0  0  0  0  0  0
    0.0487    1.4765    2.8562 H   0  0  0  0  0  0  0  0  0  0  0  0
   -0.6142   -0.0560    2.3408 H   0  0  0  0  0  0  0  0  0  0  0  0
   -0.9543    2.4334    0.8668 H   0  0  0  0  0  0  0  0  0  0  0  0
    2.6524    3.2563    0.8235 H   0  0  0  0  0  0  0  0  0  0  0  0
    1.3758    3.1747    2.0465 H   0  0  0  0  0  0  0  0  0  0  0  0
    1.0461    3.9083    0.4756 H   0  0  0  0  0  0  0  0  0  0  0  0
    2.6864    2.0130   -1.1772 H   0  0  0  0  0  0  0  0  0  0  0  0
    1.1059    2.5949   -1.6650 H   0  0  0  0  0  0  0  0  0  0  0  0
    0.4744    0.4205   -2.5654 H   0  0  0  0  0  0  0  0  0  0  0  0
    2.1198    0.7193   -3.0726 H   0  0  0  0  0  0  0  0  0  0  0  0
  2  1  1  0  0  0  0
  3  2  1  0  0  0  0
  4  3  1  0  0  0  0
  5  4  2  0  0  0  0
  6  4  1  0  0  0  0
  7  6  1  0  0  0  0
  8  7  1  0  0  0  0
  9  8  1  0  0  0  0
 10  9  2  0  0  0  0
 11 10  1  0  0  0  0
 12 11  1  0  0  0  0
 13 12  2  0  0  0  0
 13  9  1  0  0  0  0
 14 13  1  0  0  0  0
 15 14  1  0  0  0  0
 16 15  2  0  0  0  0
 17 16  1  0  0  0  0
 18 17  1  0  0  0  0
 19 17  2  0  0  0  0
 20 19  1  0  0  0  0
 21 19  1  0  0  0  0
 21 10  1  0  0  0  0
 22 21  1  0  0  0  0
 23 22  1  0  0  0  0
 23  7  1  0  0  0  0
 24 23  1  0  0  0  0
 24 21  1  0  0  0  0
 25 24  1  0  0  0  0
 26 24  1  0  0  0  0
 27 26  1  0  0  0  0
 27 12  1  0  0  0  0
  1 28  1  0  0  0  0
  1 29  1  0  0  0  0
  1 30  1  0  0  0  0
  2 31  1  0  0  0  0
  2 32  1  0  0  0  0
  3 33  1  0  0  0  0
  6 34  1  0  0  0  0
  7 35  1  0  0  0  0
  8 36  1  0  0  0  0
  8 37  1  0  0  0  0
 11 38  1  0  0  0  0
 14 39  1  0  0  0  0
 15 40  1  0  0  0  0
 16 41  1  0  0  0  0
 20 42  1  0  0  0  0
 20 43  1  0  0  0  0
 20 44  1  0  0  0  0
 22 45  1  0  0  0  0
 22 46  1  0  0  0  0
 23 47  1  0  0  0  0
 25 48  1  0  0  0  0
 25 49  1  0  0  0  0
 25 50  1  0  0  0  0
 26 51  1  0  0  0  0
 26 52  1  0  0  0  0
 27 53  1  0  0  0  0
 27 54  1  0  0  0  0
M  END
>  <energy>
138.23786494055668

$$$$
