CC(N)=CC1CC23CCC4(C(=N)N)C2CC2(CC2)C3C14CBr
                    3D

 48 52  0  0  0  0  0  0  0  0999 V2000
   -3.7762    0.5959   -1.5941 C   0  0  0  0  0  0  0  0  0  0  0  0
   -3.4460    1.0417   -0.1955 C   0  0  0  0  0  0  0  0  0  0  0  0
   -4.3235    1.9452    0.3783 N   0  0  0  0  0  0  0  0  0  0  0  0
   -2.3772    0.5967    0.4901 C   0  0  0  0  0  0  0  0  0  0  0  0
   -1.3602   -0.4500    0.0886 C   0  0  0  0  0  0  0  0  0  0  0  0
   -0.9048   -1.3605    1.2551 C   0  0  0  0  0  0  0  0  0  0  0  0
    0.7869   -1.3768    1.3047 C   0  0  0  0  0  0  0  0  0  0  0  0
    0.7605   -0.5432    2.6252 C   0  0  0  0  0  0  0  0  0  0  0  0
    0.4347    0.8751    2.1706 C   0  0  0  0  0  0  0  0  0  0  0  0
    0.8152    0.8392    0.6704 C   0  0  0  0  0  0  0  0  0  0  0  0
    1.0628    2.3043    0.2725 C   0  0  0  0  0  0  0  0  0  0  0  0
    2.2180    2.8848    0.3404 N   0  0  0  0  0  0  0  0  0  0  0  0
    0.0109    3.0708   -0.1148 N   0  0  0  0  0  0  0  0  0  0  0  0
    2.0038   -0.1040    0.9412 C   0  0  0  0  0  0  0  0  0  0  0  0
    2.9925   -1.1283    0.3532 C   0  0  0  0  0  0  0  0  0  0  0  0
    2.1419   -1.7209   -0.6951 C   0  0  0  0  0  0  0  0  0  0  0  0
    2.6192   -1.8585   -2.1234 C   0  0  0  0  0  0  0  0  0  0  0  0
    2.5314   -3.0752   -1.2517 C   0  0  0  0  0  0  0  0  0  0  0  0
    0.7228   -1.4482   -0.2614 C   0  0  0  0  0  0  0  0  0  0  0  0
    0.0359   -0.0499   -0.4218 C   0  0  0  0  0  0  0  0  0  0  0  0
    0.0881    0.5090   -1.8461 C   0  0  0  0  0  0  0  0  0  0  0  0
   -0.6580   -0.6749   -3.2109 Br  0  0  0  0  0  0  0  0  0  0  0  0
   -4.7262    1.0210   -1.9382 H   0  0  0  0  0  0  0  0  0  0  0  0
   -3.8695   -0.4928   -1.6521 H   0  0  0  0  0  0  0  0  0  0  0  0
   -3.0084    0.9402   -2.2897 H   0  0  0  0  0  0  0  0  0  0  0  0
   -5.2857    1.8027    0.0748 H   0  0  0  0  0  0  0  0  0  0  0  0
   -4.2673    1.9931    1.3915 H   0  0  0  0  0  0  0  0  0  0  0  0
   -2.2922    0.9840    1.4982 H   0  0  0  0  0  0  0  0  0  0  0  0
   -1.8572   -1.1115   -0.6336 H   0  0  0  0  0  0  0  0  0  0  0  0
   -1.4261   -1.1037    2.1884 H   0  0  0  0  0  0  0  0  0  0  0  0
   -1.2329   -2.3957    1.0739 H   0  0  0  0  0  0  0  0  0  0  0  0
    0.0803   -0.9170    3.4025 H   0  0  0  0  0  0  0  0  0  0  0  0
    1.7353   -0.5897    3.1358 H   0  0  0  0  0  0  0  0  0  0  0  0
    1.0604    1.5808    2.7357 H   0  0  0  0  0  0  0  0  0  0  0  0
   -0.5868    1.1718    2.3833 H   0  0  0  0  0  0  0  0  0  0  0  0
    2.9505    2.2521    0.6717 H   0  0  0  0  0  0  0  0  0  0  0  0
    0.2117    4.0635   -0.0687 H   0  0  0  0  0  0  0  0  0  0  0  0
   -0.9122    2.8285    0.2294 H   0  0  0  0  0  0  0  0  0  0  0  0
    2.3476    0.4201    0.0249 H   0  0  0  0  0  0  0  0  0  0  0  0
    3.9268   -0.6843   -0.0203 H   0  0  0  0  0  0  0  0  0  0  0  0
    3.2859   -1.8559    1.1202 H   0  0  0  0  0  0  0  0  0  0  0  0
    1.9320   -1.8246   -2.9577 H   0  0  0  0  0  0  0  0  0  0  0  0
    3.6079   -1.4866   -2.3753 H   0  0  0  0  0  0  0  0  0  0  0  0
    1.7518   -3.7958   -1.4743 H   0  0  0  0  0  0  0  0  0  0  0  0
    3.4649   -3.5255   -0.9301 H   0  0  0  0  0  0  0  0  0  0  0  0
    0.1149   -2.2791   -0.6445 H   0  0  0  0  0  0  0  0  0  0  0  0
   -0.4975    1.4224   -1.9506 H   0  0  0  0  0  0  0  0  0  0  0  0
    1.1129    0.7097   -2.1707 H   0  0  0  0  0  0  0  0  0  0  0  0
  2  1  1  0  0  0  0
  3  2  1  0  0  0  0
  4  2  2  0  0  0  0
  5  4  1  0  0  0  0
  6  5  1  0  0  0  0
  7  6  1  0  0  0  0
  8  7  1  0  0  0  0
  9  8  1  0  0  0  0
 10  9  1  0  0  0  0
 11 10  1  0  0  0  0
 12 11  2  0  0  0  0
 13 11  1  0  0  0  0
 14 10  1  0  0  0  0
 14  7  1  0  0  0  0
 15 14  1  0  0  0  0
 16 15  1  0  0  0  0
 17 16  1  0  0  0  0
 18 17  1  0  0  0  0
 18 16  1  0  0  0  0
 19 16  1  0  0  0  0
 19  7  1  0  0  0  0
 20 19  1  0  0  0  0
 20  5  1  0  0  0  0
 20 10  1  0  0  0  0
 21 20  1  0  0  0  0
 22 21  1  0  0  0  0
  1 23  1  0  0  0  0
  1 24  1  0  0  0  0
  1 25  1  0  0  0  0
  3 26  1  0  0  0  0
  3 27  1  0  0  0  0
  4 28  1  0  0  0  0
  5 29  1  0  0  0  0
  6 30  1  0  0  0  0
  6 31  1  0  0  0  0
  8 32  1  0  0  0  0
  8 33  1  0  0  0  0
  9 34  1  0  0  0  0
  9 35  1  0  0  0  0
 12 36  1  0  0  0  0
 13 37  1  0  0  0  0
 13 38  1  0  0  0  0
 14 39  1  0  0  0  0
 15 40  1  0  0  0  0
 15 41  1  0  0  0  0
 17 42  1  0  0  0  0
 17 43  1  0  0  0  0
 18 44  1  0  0  0  0
 18 45  1  0  0  0  0
 19 46  1  0  0  0  0
 21 47  1  0  0  0  0
 21 48  1  0  0  0  0
M  END
>  <energy>
256.32069362333584

$$$$
