CC1CC2(C)COC(C)(C)C(C)(O)C(C)C13CC2C3
                    3D

 49 51  0  0  0  0  0  0  0  0999 V2000
    1.9205    1.2719   -1.9893 C   0  0  0  0  0  0  0  0  0  0  0  0
    1.1278    0.2727   -1.1372 C   0  0  0  0  0  0  0  0  0  0  0  0
    1.7009   -1.1511   -1.2797 C   0  0  0  0  0  0  0  0  0  0  0  0
    1.3790   -1.9481   -0.0086 C   0  0  0  0  0  0  0  0  0  0  0  0
    2.1267   -3.2896   -0.0140 C   0  0  0  0  0  0  0  0  0  0  0  0
   -0.1905   -2.2258    0.0954 C   0  0  0  0  0  0  0  0  0  0  0  0
   -0.9853   -1.1816   -0.4770 O   0  0  0  0  0  0  0  0  0  0  0  0
   -1.9635   -0.3517    0.1790 C   0  0  0  0  0  0  0  0  0  0  0  0
   -3.2066   -0.6077   -0.7224 C   0  0  0  0  0  0  0  0  0  0  0  0
   -2.4530   -0.7904    1.5800 C   0  0  0  0  0  0  0  0  0  0  0  0
   -1.5624    1.2532    0.1386 C   0  0  0  0  0  0  0  0  0  0  0  0
   -1.8722    1.9045   -1.2363 C   0  0  0  0  0  0  0  0  0  0  0  0
   -2.4710    1.9461    1.0462 O   0  0  0  0  0  0  0  0  0  0  0  0
   -0.1037    1.6823    0.6837 C   0  0  0  0  0  0  0  0  0  0  0  0
    0.3472    3.1083    0.3485 C   0  0  0  0  0  0  0  0  0  0  0  0
    1.0265    0.6707    0.3870 C   0  0  0  0  0  0  0  0  0  0  0  0
    2.5360    0.4018    0.8738 C   0  0  0  0  0  0  0  0  0  0  0  0
    1.9554   -1.0785    1.1693 C   0  0  0  0  0  0  0  0  0  0  0  0
    0.8316   -0.2521    1.7323 C   0  0  0  0  0  0  0  0  0  0  0  0
    1.3098    2.1423   -2.2395 H   0  0  0  0  0  0  0  0  0  0  0  0
    2.2144    0.8227   -2.9445 H   0  0  0  0  0  0  0  0  0  0  0  0
    2.8222    1.6436   -1.4984 H   0  0  0  0  0  0  0  0  0  0  0  0
    0.1550    0.2472   -1.6114 H   0  0  0  0  0  0  0  0  0  0  0  0
    2.7878   -1.1114   -1.4346 H   0  0  0  0  0  0  0  0  0  0  0  0
    1.2878   -1.6380   -2.1702 H   0  0  0  0  0  0  0  0  0  0  0  0
    1.8219   -3.9105   -0.8624 H   0  0  0  0  0  0  0  0  0  0  0  0
    1.9273   -3.8505    0.9054 H   0  0  0  0  0  0  0  0  0  0  0  0
    3.2106   -3.1418   -0.0794 H   0  0  0  0  0  0  0  0  0  0  0  0
   -0.4018   -3.0966   -0.5389 H   0  0  0  0  0  0  0  0  0  0  0  0
   -0.5008   -2.5245    1.1004 H   0  0  0  0  0  0  0  0  0  0  0  0
   -4.0576    0.0258   -0.4520 H   0  0  0  0  0  0  0  0  0  0  0  0
   -3.5285   -1.6541   -0.6400 H   0  0  0  0  0  0  0  0  0  0  0  0
   -2.9733   -0.4599   -1.7828 H   0  0  0  0  0  0  0  0  0  0  0  0
   -3.4736   -0.4330    1.7690 H   0  0  0  0  0  0  0  0  0  0  0  0
   -2.4715   -1.8778    1.6902 H   0  0  0  0  0  0  0  0  0  0  0  0
   -1.8657   -0.3678    2.3973 H   0  0  0  0  0  0  0  0  0  0  0  0
   -1.3169    1.4765   -2.0696 H   0  0  0  0  0  0  0  0  0  0  0  0
   -1.6907    2.9831   -1.2220 H   0  0  0  0  0  0  0  0  0  0  0  0
   -2.9383    1.8342   -1.4796 H   0  0  0  0  0  0  0  0  0  0  0  0
   -3.3770    1.8504    0.7065 H   0  0  0  0  0  0  0  0  0  0  0  0
   -0.2366    1.7544    1.7745 H   0  0  0  0  0  0  0  0  0  0  0  0
   -0.3761    3.8439    0.7163 H   0  0  0  0  0  0  0  0  0  0  0  0
    0.4778    3.2814   -0.7193 H   0  0  0  0  0  0  0  0  0  0  0  0
    1.3079    3.3230    0.8298 H   0  0  0  0  0  0  0  0  0  0  0  0
    2.8685    0.9751    1.7511 H   0  0  0  0  0  0  0  0  0  0  0  0
    3.3637    0.4207    0.1616 H   0  0  0  0  0  0  0  0  0  0  0  0
    2.5102   -1.6471    1.9220 H   0  0  0  0  0  0  0  0  0  0  0  0
    1.0659    0.2480    2.6885 H   0  0  0  0  0  0  0  0  0  0  0  0
   -0.0657   -0.7944    1.9625 H   0  0  0  0  0  0  0  0  0  0  0  0
  2  1  1  0  0  0  0
  3  2  1  0  0  0  0
  4  3  1  0  0  0  0
  5  4  1  0  0  0  0
  6  4  1  0  0  0  0
  7  6  1  0  0  0  0
  8  7  1  0  0  0  0
  9  8  1  0  0  0  0
 10  8  1  0  0  0  0
 11  8  1  0  0  0  0
 12 11  1  0  0  0  0
 13 11  1  0  0  0  0
 14 11  1  0  0  0  0
 15 14  1  0  0  0  0
 16 14  1  0  0  0  0
 16  2  1  0  0  0  0
 17 16  1  0  0  0  0
 18 17  1  0  0  0  0
 18  4  1  0  0  0  0
 19 18  1  0  0  0  0
 19 16  1  0  0  0  0
  1 20  1  0  0  0  0
  1 21  1  0  0  0  0
  1 22  1  0  0  0  0
  2 23  1  0  0  0  0
  3 24  1  0  0  0  0
  3 25  1  0  0  0  0
  5 26  1  0  0  0  0
  5 27  1  0  0  0  0
  5 28  1  0  0  0  0
  6 29  1  0  0  0  0
  6 30  1  0  0  0  0
  9 31  1  0  0  0  0
  9 32  1  0  0  0  0
  9 33  1  0  0  0  0
 10 34  1  0  0  0  0
 10 35  1  0  0  0  0
 10 36  1  0  0  0  0
 12 37  1  0  0  0  0
 12 38  1  0  0  0  0
 12 39  1  0  0  0  0
 13 40  1  0  0  0  0
 14 41  1  0  0  0  0
 15 42  1  0  0  0  0
 15 43  1  0  0  0  0
 15 44  1  0  0  0  0
 17 45  1  0  0  0  0
 17 46  1  0  0  0  0
 18 47  1  0  0  0  0
 19 48  1  0  0  0  0
 19 49  1  0  0  0  0
M  END
>  <energy>
180.15514291425967

$$$$
