CC(C)=NC(=O)C1CC(CCCC(C)C)N(C(=O)C(=O)N=C(C)NC2C3CC4CC3C42)C(CC(N)=O)C(=O)N1
                    3D

 81 84  0  0  0  0  0  0  0  0999 V2000
   -1.9668   -2.0429    4.0313 C   0  0  0  0  0  0  0  0  0  0  0  0
   -0.6109   -1.9487    3.3735 C   0  0  0  0  0  0  0  0  0  0  0  0
   -0.1498   -3.1451    2.5715 C   0  0  0  0  0  0  0  0  0  0  0  0
    0.0813   -0.8697    3.5819 N   0  0  0  0  0  0  0  0  0  0  0  0
    1.3339   -0.7766    3.0180 C   0  0  0  0  0  0  0  0  0  0  0  0
    2.1992   -1.6449    3.0947 O   0  0  0  0  0  0  0  0  0  0  0  0
    1.5622    0.5105    2.1945 C   0  0  0  0  0  0  0  0  0  0  0  0
    1.5391    0.1426    0.7190 C   0  0  0  0  0  0  0  0  0  0  0  0
    2.1676    1.2035   -0.2094 C   0  0  0  0  0  0  0  0  0  0  0  0
    2.3128    0.5416   -1.6070 C   0  0  0  0  0  0  0  0  0  0  0  0
    3.5129   -0.4156   -1.7038 C   0  0  0  0  0  0  0  0  0  0  0  0
    3.2469   -1.5496   -2.6983 C   0  0  0  0  0  0  0  0  0  0  0  0
    2.4647   -2.7192   -2.0655 C   0  0  0  0  0  0  0  0  0  0  0  0
    1.7725   -3.5446   -3.1506 C   0  0  0  0  0  0  0  0  0  0  0  0
    3.3925   -3.6207   -1.2442 C   0  0  0  0  0  0  0  0  0  0  0  0
    1.3577    2.4404   -0.1853 N   0  0  0  0  0  0  0  0  0  0  0  0
    0.7621    2.9651   -1.3434 C   0  0  0  0  0  0  0  0  0  0  0  0
    1.3513    3.2403   -2.3809 O   0  0  0  0  0  0  0  0  0  0  0  0
   -0.7916    3.0559   -1.3000 C   0  0  0  0  0  0  0  0  0  0  0  0
   -1.3113    4.1656   -1.2624 O   0  0  0  0  0  0  0  0  0  0  0  0
   -1.4845    1.8612   -1.3084 N   0  0  0  0  0  0  0  0  0  0  0  0
   -2.1840    1.5407   -2.3592 C   0  0  0  0  0  0  0  0  0  0  0  0
   -2.3269    2.4467   -3.5718 C   0  0  0  0  0  0  0  0  0  0  0  0
   -2.8271    0.3143   -2.4488 N   0  0  0  0  0  0  0  0  0  0  0  0
   -2.7307   -0.5747   -1.3325 C   0  0  0  0  0  0  0  0  0  0  0  0
   -3.6129   -0.2155   -0.0996 C   0  0  0  0  0  0  0  0  0  0  0  0
   -5.0481    0.0284   -0.5351 C   0  0  0  0  0  0  0  0  0  0  0  0
   -5.1651   -1.3743   -1.0961 C   0  0  0  0  0  0  0  0  0  0  0  0
   -5.0448   -2.3158    0.1249 C   0  0  0  0  0  0  0  0  0  0  0  0
   -3.6101   -1.7547    0.1674 C   0  0  0  0  0  0  0  0  0  0  0  0
   -3.6834   -1.7848   -1.4031 C   0  0  0  0  0  0  0  0  0  0  0  0
    1.3462    3.3294    1.0025 C   0  0  0  0  0  0  0  0  0  0  0  0
    2.7408    3.6995    1.5291 C   0  0  0  0  0  0  0  0  0  0  0  0
    2.5829    4.8614    2.4838 C   0  0  0  0  0  0  0  0  0  0  0  0
    2.7645    4.5719    3.8002 N   0  0  0  0  0  0  0  0  0  0  0  0
    2.2575    5.9822    2.1125 O   0  0  0  0  0  0  0  0  0  0  0  0
    0.4581    2.7975    2.1410 C   0  0  0  0  0  0  0  0  0  0  0  0
   -0.2646    3.5456    2.8065 O   0  0  0  0  0  0  0  0  0  0  0  0
    0.5530    1.5058    2.5366 N   0  0  0  0  0  0  0  0  0  0  0  0
   -2.3140   -1.0486    4.3337 H   0  0  0  0  0  0  0  0  0  0  0  0
   -2.6936   -2.4701    3.3323 H   0  0  0  0  0  0  0  0  0  0  0  0
   -1.8888   -2.6824    4.9167 H   0  0  0  0  0  0  0  0  0  0  0  0
   -1.0039   -3.7669    2.2889 H   0  0  0  0  0  0  0  0  0  0  0  0
    0.5323   -3.7419    3.1850 H   0  0  0  0  0  0  0  0  0  0  0  0
    0.3536   -2.8254    1.6536 H   0  0  0  0  0  0  0  0  0  0  0  0
    2.5398    0.8972    2.4971 H   0  0  0  0  0  0  0  0  0  0  0  0
    2.0754   -0.8050    0.5981 H   0  0  0  0  0  0  0  0  0  0  0  0
    0.5057   -0.0677    0.4061 H   0  0  0  0  0  0  0  0  0  0  0  0
    3.1684    1.4666    0.1477 H   0  0  0  0  0  0  0  0  0  0  0  0
    1.3695    0.0423   -1.8711 H   0  0  0  0  0  0  0  0  0  0  0  0
    2.4852    1.2889   -2.3808 H   0  0  0  0  0  0  0  0  0  0  0  0
    4.3825    0.1596   -2.0456 H   0  0  0  0  0  0  0  0  0  0  0  0
    3.7936   -0.8178   -0.7264 H   0  0  0  0  0  0  0  0  0  0  0  0
    2.7064   -1.1500   -3.5650 H   0  0  0  0  0  0  0  0  0  0  0  0
    4.2060   -1.9255   -3.0721 H   0  0  0  0  0  0  0  0  0  0  0  0
    1.6862   -2.3305   -1.3992 H   0  0  0  0  0  0  0  0  0  0  0  0
    1.2584   -4.4127   -2.7191 H   0  0  0  0  0  0  0  0  0  0  0  0
    2.4899   -3.9087   -3.8942 H   0  0  0  0  0  0  0  0  0  0  0  0
    1.0189   -2.9424   -3.6707 H   0  0  0  0  0  0  0  0  0  0  0  0
    3.9094   -3.0606   -0.4584 H   0  0  0  0  0  0  0  0  0  0  0  0
    4.1555   -4.0842   -1.8789 H   0  0  0  0  0  0  0  0  0  0  0  0
    2.8294   -4.4257   -0.7581 H   0  0  0  0  0  0  0  0  0  0  0  0
   -2.8531    3.3624   -3.3025 H   0  0  0  0  0  0  0  0  0  0  0  0
   -1.3417    2.7099   -3.9633 H   0  0  0  0  0  0  0  0  0  0  0  0
   -2.8890    1.9508   -4.3668 H   0  0  0  0  0  0  0  0  0  0  0  0
   -3.6358    0.2364   -3.0515 H   0  0  0  0  0  0  0  0  0  0  0  0
   -1.6911   -0.8484   -1.1142 H   0  0  0  0  0  0  0  0  0  0  0  0
   -3.1757    0.4416    0.6543 H   0  0  0  0  0  0  0  0  0  0  0  0
   -5.1582    0.8183   -1.2831 H   0  0  0  0  0  0  0  0  0  0  0  0
   -5.7295    0.2107    0.3029 H   0  0  0  0  0  0  0  0  0  0  0  0
   -5.9384   -1.5945   -1.8313 H   0  0  0  0  0  0  0  0  0  0  0  0
   -5.6766   -2.0884    0.9874 H   0  0  0  0  0  0  0  0  0  0  0  0
   -5.1160   -3.3882   -0.0847 H   0  0  0  0  0  0  0  0  0  0  0  0
   -2.7838   -2.2567    0.6660 H   0  0  0  0  0  0  0  0  0  0  0  0
   -3.4296   -2.7166   -1.9031 H   0  0  0  0  0  0  0  0  0  0  0  0
    0.8496    4.2582    0.6830 H   0  0  0  0  0  0  0  0  0  0  0  0
    3.2320    2.8745    2.0517 H   0  0  0  0  0  0  0  0  0  0  0  0
    3.4159    3.9978    0.7185 H   0  0  0  0  0  0  0  0  0  0  0  0
    2.4639    5.2716    4.4719 H   0  0  0  0  0  0  0  0  0  0  0  0
    3.0094    3.6527    4.1467 H   0  0  0  0  0  0  0  0  0  0  0  0
   -0.0651    1.2667    3.3150 H   0  0  0  0  0  0  0  0  0  0  0  0
  2  1  1  0  0  0  0
  3  2  1  0  0  0  0
  4  2  2  0  0  0  0
  5  4  1  0  0  0  0
  6  5  2  0  0  0  0
  7  5  1  0  0  0  0
  8  7  1  0  0  0  0
  9  8  1  0  0  0  0
 10  9  1  0  0  0  0
 11 10  1  0  0  0  0
 12 11  1  0  0  0  0
 13 12  1  0  0  0  0
 14 13  1  0  0  0  0
 15 13  1  0  0  0  0
 16  9  1  0  0  0  0
 17 16  1  0  0  0  0
 18 17  2  0  0  0  0
 19 17  1  0  0  0  0
 20 19  2  0  0  0  0
 21 19  1  0  0  0  0
 22 21  2  0  0  0  0
 23 22  1  0  0  0  0
 24 22  1  0  0  0  0
 25 24  1  0  0  0  0
 26 25  1  0  0  0  0
 27 26  1  0  0  0  0
 28 27  1  0  0  0  0
 29 28  1  0  0  0  0
 30 29  1  0  0  0  0
 30 26  1  0  0  0  0
 31 30  1  0  0  0  0
 31 28  1  0  0  0  0
 31 25  1  0  0  0  0
 32 16  1  0  0  0  0
 33 32  1  0  0  0  0
 34 33  1  0  0  0  0
 35 34  1  0  0  0  0
 36 34  2  0  0  0  0
 37 32  1  0  0  0  0
 38 37  2  0  0  0  0
 39 37  1  0  0  0  0
 39  7  1  0  0  0  0
  1 40  1  0  0  0  0
  1 41  1  0  0  0  0
  1 42  1  0  0  0  0
  3 43  1  0  0  0  0
  3 44  1  0  0  0  0
  3 45  1  0  0  0  0
  7 46  1  0  0  0  0
  8 47  1  0  0  0  0
  8 48  1  0  0  0  0
  9 49  1  0  0  0  0
 10 50  1  0  0  0  0
 10 51  1  0  0  0  0
 11 52  1  0  0  0  0
 11 53  1  0  0  0  0
 12 54  1  0  0  0  0
 12 55  1  0  0  0  0
 13 56  1  0  0  0  0
 14 57  1  0  0  0  0
 14 58  1  0  0  0  0
 14 59  1  0  0  0  0
 15 60  1  0  0  0  0
 15 61  1  0  0  0  0
 15 62  1  0  0  0  0
 23 63  1  0  0  0  0
 23 64  1  0  0  0  0
 23 65  1  0  0  0  0
 24 66  1  0  0  0  0
 25 67  1  0  0  0  0
 26 68  1  0  0  0  0
 27 69  1  0  0  0  0
 27 70  1  0  0  0  0
 28 71  1  0  0  0  0
 29 72  1  0  0  0  0
 29 73  1  0  0  0  0
 30 74  1  0  0  0  0
 31 75  1  0  0  0  0
 32 76  1  0  0  0  0
 33 77  1  0  0  0  0
 33 78  1  0  0  0  0
 35 79  1  0  0  0  0
 35 80  1  0  0  0  0
 39 81  1  0  0  0  0
M  END
>  <energy>
129.5166810624016

$$$$
