C#CC=CC[NH+](C)CCC#CCNCC1CC12C1C3CC4(C)CCC15C3OC(C(O)C4)C25
                    3D

 71 76  0  0  0  0  0  0  0  0999 V2000
   -4.5818   -2.7706    0.9053 C   0  0  0  0  0  0  0  0  0  0  0  0
   -4.2803   -1.8932    0.1472 C   0  0  0  0  0  0  0  0  0  0  0  0
   -3.9257   -0.8473   -0.7486 C   0  0  0  0  0  0  0  0  0  0  0  0
   -4.2954    0.4202   -0.5002 C   0  0  0  0  0  0  0  0  0  0  0  0
   -3.9283    1.5867   -1.3609 C   0  0  0  0  0  0  0  0  0  0  0  0
   -3.7672    2.8807   -0.5830 N   0  3  0  0  0  0  0  0  0  0  0  0
   -3.7047    4.0670   -1.5092 C   0  0  0  0  0  0  0  0  0  0  0  0
   -2.5642    2.8360    0.3547 C   0  0  0  0  0  0  0  0  0  0  0  0
   -2.7189    3.8141    1.5292 C   0  0  0  0  0  0  0  0  0  0  0  0
   -1.6664    3.5406    2.5122 C   0  0  0  0  0  0  0  0  0  0  0  0
   -0.7726    3.1945    3.2318 C   0  0  0  0  0  0  0  0  0  0  0  0
    0.3539    2.6323    3.9895 C   0  0  0  0  0  0  0  0  0  0  0  0
    1.3376    2.1790    3.0112 N   0  0  0  0  0  0  0  0  0  0  0  0
    2.1940    1.1122    3.5110 C   0  0  0  0  0  0  0  0  0  0  0  0
    1.6274   -0.2344    3.1471 C   0  0  0  0  0  0  0  0  0  0  0  0
    2.6148   -1.3736    3.0507 C   0  0  0  0  0  0  0  0  0  0  0  0
    1.8866   -0.9317    1.8224 C   0  0  0  0  0  0  0  0  0  0  0  0
    0.9504   -1.8408    1.0632 C   0  0  0  0  0  0  0  0  0  0  0  0
    1.2785   -3.1427    0.2051 C   0  0  0  0  0  0  0  0  0  0  0  0
    0.7177   -3.3510   -1.2982 C   0  0  0  0  0  0  0  0  0  0  0  0
    1.1845   -2.2412   -2.4914 C   0  0  0  0  0  0  0  0  0  0  0  0
    0.8694   -2.9381   -3.8477 C   0  0  0  0  0  0  0  0  0  0  0  0
    0.2545   -1.0338   -2.3549 C   0  0  0  0  0  0  0  0  0  0  0  0
    0.3258   -0.4777   -0.9576 C   0  0  0  0  0  0  0  0  0  0  0  0
    1.4543   -1.1140   -0.1690 C   0  0  0  0  0  0  0  0  0  0  0  0
    2.5296   -2.5584   -0.2753 C   0  0  0  0  0  0  0  0  0  0  0  0
    3.7543   -2.0716    0.2531 O   0  0  0  0  0  0  0  0  0  0  0  0
    3.6811   -0.6954   -0.1185 C   0  0  0  0  0  0  0  0  0  0  0  0
    3.4850   -0.5352   -1.7274 C   0  0  0  0  0  0  0  0  0  0  0  0
    4.7960   -0.3739   -2.3008 O   0  0  0  0  0  0  0  0  0  0  0  0
    2.7261   -1.6238   -2.6681 C   0  0  0  0  0  0  0  0  0  0  0  0
    2.4021   -0.2178    0.5955 C   0  0  0  0  0  0  0  0  0  0  0  0
   -4.8695   -3.5418    1.5828 H   0  0  0  0  0  0  0  0  0  0  0  0
   -3.3586   -1.1215   -1.6375 H   0  0  0  0  0  0  0  0  0  0  0  0
   -4.8744    0.6142    0.4018 H   0  0  0  0  0  0  0  0  0  0  0  0
   -4.7306    1.7547   -2.0855 H   0  0  0  0  0  0  0  0  0  0  0  0
   -2.9893    1.4231   -1.9029 H   0  0  0  0  0  0  0  0  0  0  0  0
   -4.6163    2.9811   -0.0139 H   0  0  0  0  0  0  0  0  0  0  0  0
   -3.6012    4.9741   -0.9116 H   0  0  0  0  0  0  0  0  0  0  0  0
   -4.6388    4.1062   -2.0720 H   0  0  0  0  0  0  0  0  0  0  0  0
   -2.8474    3.9397   -2.1736 H   0  0  0  0  0  0  0  0  0  0  0  0
   -1.6703    3.0428   -0.2445 H   0  0  0  0  0  0  0  0  0  0  0  0
   -2.4796    1.8151    0.7427 H   0  0  0  0  0  0  0  0  0  0  0  0
   -3.7032    3.6867    1.9957 H   0  0  0  0  0  0  0  0  0  0  0  0
   -2.6510    4.8524    1.1878 H   0  0  0  0  0  0  0  0  0  0  0  0
    0.7864    3.3892    4.6550 H   0  0  0  0  0  0  0  0  0  0  0  0
   -0.0198    1.8171    4.6183 H   0  0  0  0  0  0  0  0  0  0  0  0
    1.9205    2.9858    2.7847 H   0  0  0  0  0  0  0  0  0  0  0  0
    2.3555    1.1900    4.5926 H   0  0  0  0  0  0  0  0  0  0  0  0
    3.1800    1.2202    3.0427 H   0  0  0  0  0  0  0  0  0  0  0  0
    0.6855   -0.4303    3.6499 H   0  0  0  0  0  0  0  0  0  0  0  0
    2.3424   -2.3058    3.5322 H   0  0  0  0  0  0  0  0  0  0  0  0
    3.6775   -1.1689    3.1051 H   0  0  0  0  0  0  0  0  0  0  0  0
   -0.1023   -1.7336    1.3307 H   0  0  0  0  0  0  0  0  0  0  0  0
    1.3394   -4.0807    0.7726 H   0  0  0  0  0  0  0  0  0  0  0  0
   -0.3770   -3.3688   -1.2534 H   0  0  0  0  0  0  0  0  0  0  0  0
    1.0312   -4.3496   -1.6311 H   0  0  0  0  0  0  0  0  0  0  0  0
    1.5387   -3.7933   -4.0157 H   0  0  0  0  0  0  0  0  0  0  0  0
    0.9913   -2.2492   -4.6955 H   0  0  0  0  0  0  0  0  0  0  0  0
   -0.1653   -3.3066   -3.8721 H   0  0  0  0  0  0  0  0  0  0  0  0
    0.5152   -0.2523   -3.0794 H   0  0  0  0  0  0  0  0  0  0  0  0
   -0.7802   -1.3158   -2.5908 H   0  0  0  0  0  0  0  0  0  0  0  0
    0.4441    0.6103   -1.0009 H   0  0  0  0  0  0  0  0  0  0  0  0
   -0.6471   -0.6349   -0.4778 H   0  0  0  0  0  0  0  0  0  0  0  0
    2.8684   -3.1834   -1.1040 H   0  0  0  0  0  0  0  0  0  0  0  0
    4.5690   -0.1690    0.2348 H   0  0  0  0  0  0  0  0  0  0  0  0
    2.9880    0.4289   -1.8995 H   0  0  0  0  0  0  0  0  0  0  0  0
    5.3415   -1.1247   -1.9939 H   0  0  0  0  0  0  0  0  0  0  0  0
    2.6926   -1.1022   -3.6389 H   0  0  0  0  0  0  0  0  0  0  0  0
    3.4167   -2.4535   -2.8769 H   0  0  0  0  0  0  0  0  0  0  0  0
    2.2201    0.8567    0.5236 H   0  0  0  0  0  0  0  0  0  0  0  0
  2  1  3  0  0  0  0
  3  2  1  0  0  0  0
  4  3  2  0  0  0  0
  5  4  1  0  0  0  0
  6  5  1  0  0  0  0
  7  6  1  0  0  0  0
  8  6  1  0  0  0  0
  9  8  1  0  0  0  0
 10  9  1  0  0  0  0
 11 10  3  0  0  0  0
 12 11  1  0  0  0  0
 13 12  1  0  0  0  0
 14 13  1  0  0  0  0
 15 14  1  0  0  0  0
 16 15  1  0  0  0  0
 17 16  1  0  0  0  0
 17 15  1  0  0  0  0
 18 17  1  0  0  0  0
 19 18  1  0  0  0  0
 20 19  1  0  0  0  0
 21 20  1  0  0  0  0
 22 21  1  0  0  0  0
 23 21  1  0  0  0  0
 24 23  1  0  0  0  0
 25 24  1  0  0  0  0
 25 18  1  0  0  0  0
 26 25  1  0  0  0  0
 26 19  1  0  0  0  0
 27 26  1  0  0  0  0
 28 27  1  0  0  0  0
 29 28  1  0  0  0  0
 30 29  1  0  0  0  0
 31 29  1  0  0  0  0
 31 21  1  0  0  0  0
 32 28  1  0  0  0  0
 32 17  1  0  0  0  0
 32 25  1  0  0  0  0
  1 33  1  0  0  0  0
  3 34  1  0  0  0  0
  4 35  1  0  0  0  0
  5 36  1  0  0  0  0
  5 37  1  0  0  0  0
  6 38  1  0  0  0  0
  7 39  1  0  0  0  0
  7 40  1  0  0  0  0
  7 41  1  0  0  0  0
  8 42  1  0  0  0  0
  8 43  1  0  0  0  0
  9 44  1  0  0  0  0
  9 45  1  0  0  0  0
 12 46  1  0  0  0  0
 12 47  1  0  0  0  0
 13 48  1  0  0  0  0
 14 49  1  0  0  0  0
 14 50  1  0  0  0  0
 15 51  1  0  0  0  0
 16 52  1  0  0  0  0
 16 53  1  0  0  0  0
 18 54  1  0  0  0  0
 19 55  1  0  0  0  0
 20 56  1  0  0  0  0
 20 57  1  0  0  0  0
 22 58  1  0  0  0  0
 22 59  1  0  0  0  0
 22 60  1  0  0  0  0
 23 61  1  0  0  0  0
 23 62  1  0  0  0  0
 24 63  1  0  0  0  0
 24 64  1  0  0  0  0
 26 65  1  0  0  0  0
 28 66  1  0  0  0  0
 29 67  1  0  0  0  0
 30 68  1  0  0  0  0
 31 69  1  0  0  0  0
 31 70  1  0  0  0  0
 32 71  1  0  0  0  0
M  CHG  1   6   1
M  END
>  <energy>
218.57314924223053

$$$$
