CNC(=O)N1CC23CSCC1C1C2C(COC)[N+]1(C)C3
                    3D

 44 47  0  0  0  0  0  0  0  0999 V2000
   -5.3048    0.2959    0.0887 C   0  0  0  0  0  0  0  0  0  0  0  0
   -3.9319    0.4753    0.4958 N   0  0  0  0  0  0  0  0  0  0  0  0
   -2.9589    0.6429   -0.4505 C   0  0  0  0  0  0  0  0  0  0  0  0
   -3.1945    0.7489   -1.6502 O   0  0  0  0  0  0  0  0  0  0  0  0
   -1.6634    0.6890    0.0371 N   0  0  0  0  0  0  0  0  0  0  0  0
   -1.3187    0.6326    1.5400 C   0  0  0  0  0  0  0  0  0  0  0  0
    0.1389    0.8603    1.4119 C   0  0  0  0  0  0  0  0  0  0  0  0
    0.0454    2.4466    1.0077 C   0  0  0  0  0  0  0  0  0  0  0  0
    0.8207    3.1059   -0.4853 S   0  0  0  0  0  0  0  0  0  0  0  0
   -0.2108    2.1701   -1.6343 C   0  0  0  0  0  0  0  0  0  0  0  0
   -0.4767    0.7888   -1.0413 C   0  0  0  0  0  0  0  0  0  0  0  0
    0.9183    0.1051   -0.6217 C   0  0  0  0  0  0  0  0  0  0  0  0
    0.3644   -0.5816    0.5595 C   0  0  0  0  0  0  0  0  0  0  0  0
    1.7790   -1.1865    0.7955 C   0  0  0  0  0  0  0  0  0  0  0  0
    2.3270   -2.3897   -0.0012 C   0  0  0  0  0  0  0  0  0  0  0  0
    1.9616   -2.3505   -1.3756 O   0  0  0  0  0  0  0  0  0  0  0  0
    1.7210   -3.6416   -1.9283 C   0  0  0  0  0  0  0  0  0  0  0  0
    2.0830    0.2380    0.5020 N   0  3  0  0  0  0  0  0  0  0  0  0
    3.4127    0.5002   -0.0526 C   0  0  0  0  0  0  0  0  0  0  0  0
    1.5570    0.8788    1.8264 C   0  0  0  0  0  0  0  0  0  0  0  0
   -5.9346    0.3227    0.9788 H   0  0  0  0  0  0  0  0  0  0  0  0
   -5.4000   -0.6752   -0.4080 H   0  0  0  0  0  0  0  0  0  0  0  0
   -5.6036    1.0893   -0.6007 H   0  0  0  0  0  0  0  0  0  0  0  0
   -3.6736   -0.0206    1.3313 H   0  0  0  0  0  0  0  0  0  0  0  0
   -1.6146   -0.3485    1.9258 H   0  0  0  0  0  0  0  0  0  0  0  0
   -1.8966    1.3804    2.0938 H   0  0  0  0  0  0  0  0  0  0  0  0
   -0.9860    2.8222    0.9380 H   0  0  0  0  0  0  0  0  0  0  0  0
    0.4158    3.0377    1.8597 H   0  0  0  0  0  0  0  0  0  0  0  0
   -1.1351    2.7144   -1.8419 H   0  0  0  0  0  0  0  0  0  0  0  0
    0.3560    2.0818   -2.5661 H   0  0  0  0  0  0  0  0  0  0  0  0
   -0.8630    0.1762   -1.8692 H   0  0  0  0  0  0  0  0  0  0  0  0
    1.3119   -0.3576   -1.5244 H   0  0  0  0  0  0  0  0  0  0  0  0
   -0.4226   -1.3372    0.4399 H   0  0  0  0  0  0  0  0  0  0  0  0
    1.9678   -1.4799    1.8389 H   0  0  0  0  0  0  0  0  0  0  0  0
    1.9177   -3.2978    0.4601 H   0  0  0  0  0  0  0  0  0  0  0  0
    3.4198   -2.4380    0.0753 H   0  0  0  0  0  0  0  0  0  0  0  0
    2.5702   -4.3075   -1.7539 H   0  0  0  0  0  0  0  0  0  0  0  0
    1.5704   -3.5313   -3.0054 H   0  0  0  0  0  0  0  0  0  0  0  0
    0.8097   -4.0656   -1.4931 H   0  0  0  0  0  0  0  0  0  0  0  0
    3.4872    1.5654   -0.2780 H   0  0  0  0  0  0  0  0  0  0  0  0
    3.5750   -0.0827   -0.9616 H   0  0  0  0  0  0  0  0  0  0  0  0
    4.1567    0.2377    0.7027 H   0  0  0  0  0  0  0  0  0  0  0  0
    2.0914    1.8288    1.9405 H   0  0  0  0  0  0  0  0  0  0  0  0
    1.8107    0.2568    2.6937 H   0  0  0  0  0  0  0  0  0  0  0  0
  2  1  1  0  0  0  0
  3  2  1  0  0  0  0
  4  3  2  0  0  0  0
  5  3  1  0  0  0  0
  6  5  1  0  0  0  0
  7  6  1  0  0  0  0
  8  7  1  0  0  0  0
  9  8  1  0  0  0  0
 10  9  1  0  0  0  0
 11 10  1  0  0  0  0
 11  5  1  0  0  0  0
 12 11  1  0  0  0  0
 13 12  1  0  0  0  0
 13  7  1  0  0  0  0
 14 13  1  0  0  0  0
 15 14  1  0  0  0  0
 16 15  1  0  0  0  0
 17 16  1  0  0  0  0
 18 14  1  0  0  0  0
 18 12  1  0  0  0  0
 19 18  1  0  0  0  0
 20 18  1  0  0  0  0
 20  7  1  0  0  0  0
  1 21  1  0  0  0  0
  1 22  1  0  0  0  0
  1 23  1  0  0  0  0
  2 24  1  0  0  0  0
  6 25  1  0  0  0  0
  6 26  1  0  0  0  0
  8 27  1  0  0  0  0
  8 28  1  0  0  0  0
 10 29  1  0  0  0  0
 10 30  1  0  0  0  0
 11 31  1  0  0  0  0
 12 32  1  0  0  0  0
 13 33  1  0  0  0  0
 14 34  1  0  0  0  0
 15 35  1  0  0  0  0
 15 36  1  0  0  0  0
 17 37  1  0  0  0  0
 17 38  1  0  0  0  0
 17 39  1  0  0  0  0
 19 40  1  0  0  0  0
 19 41  1  0  0  0  0
 19 42  1  0  0  0  0
 20 43  1  0  0  0  0
 20 44  1  0  0  0  0
M  CHG  1  18   1
M  END
>  <energy>
197.66883981304767

$$$$
