C=CC1CC1CCCC(=O)NC1CC23OC4CC(C2O)C12CC(O)C1c5ccccc5C2CC413
                    3D

 69 76  0  0  0  0  0  0  0  0999 V2000
   -4.8337   -0.6888   -2.1224 C   0  0  0  0  0  0  0  0  0  0  0  0
   -4.5164   -1.0305   -0.8629 C   0  0  0  0  0  0  0  0  0  0  0  0
   -4.1681   -0.0876    0.1992 C   0  0  0  0  0  0  0  0  0  0  0  0
   -5.2514    0.7898    0.7722 C   0  0  0  0  0  0  0  0  0  0  0  0
   -4.6691   -0.3208    1.6056 C   0  0  0  0  0  0  0  0  0  0  0  0
   -3.8019    0.0428    2.7780 C   0  0  0  0  0  0  0  0  0  0  0  0
   -3.1359   -1.1842    3.4058 C   0  0  0  0  0  0  0  0  0  0  0  0
   -1.7221   -0.9052    3.9386 C   0  0  0  0  0  0  0  0  0  0  0  0
   -0.7278   -0.9838    2.7991 C   0  0  0  0  0  0  0  0  0  0  0  0
   -0.2433   -2.0489    2.4327 O   0  0  0  0  0  0  0  0  0  0  0  0
   -0.5206    0.1989    2.1269 N   0  0  0  0  0  0  0  0  0  0  0  0
   -0.2466    0.1546    0.7168 C   0  0  0  0  0  0  0  0  0  0  0  0
   -0.4899    1.5863   -0.1936 C   0  0  0  0  0  0  0  0  0  0  0  0
    0.9707    2.1127   -0.3361 C   0  0  0  0  0  0  0  0  0  0  0  0
    1.5371    3.1507   -1.1979 O   0  0  0  0  0  0  0  0  0  0  0  0
    2.9310    2.6045   -0.9246 C   0  0  0  0  0  0  0  0  0  0  0  0
    3.3008    2.4308    0.5720 C   0  0  0  0  0  0  0  0  0  0  0  0
    2.0291    1.4295    1.2361 C   0  0  0  0  0  0  0  0  0  0  0  0
    1.1354    2.6044    1.1135 C   0  0  0  0  0  0  0  0  0  0  0  0
    0.0710    2.6219    2.0607 O   0  0  0  0  0  0  0  0  0  0  0  0
    1.2182   -0.0840    0.3077 C   0  0  0  0  0  0  0  0  0  0  0  0
    0.4647   -0.4803   -1.3209 C   0  0  0  0  0  0  0  0  0  0  0  0
    0.9475    0.1203   -2.6492 C   0  0  0  0  0  0  0  0  0  0  0  0
    0.2247    1.2600   -3.0816 O   0  0  0  0  0  0  0  0  0  0  0  0
    2.3960    0.4398   -2.4645 C   0  0  0  0  0  0  0  0  0  0  0  0
    2.9655   -1.0132   -2.4174 C   0  0  0  0  0  0  0  0  0  0  0  0
    3.4791   -1.6140   -3.5680 C   0  0  0  0  0  0  0  0  0  0  0  0
    3.8573   -2.9550   -3.5255 C   0  0  0  0  0  0  0  0  0  0  0  0
    3.7105   -3.7057   -2.3513 C   0  0  0  0  0  0  0  0  0  0  0  0
    3.1876   -3.1275   -1.1915 C   0  0  0  0  0  0  0  0  0  0  0  0
    2.8165   -1.7818   -1.2014 C   0  0  0  0  0  0  0  0  0  0  0  0
    2.4507   -1.0300    0.1003 C   0  0  0  0  0  0  0  0  0  0  0  0
    3.4607    0.0781   -0.1959 C   0  0  0  0  0  0  0  0  0  0  0  0
    2.5079    1.1642   -1.0955 C   0  0  0  0  0  0  0  0  0  0  0  0
   -5.0824   -1.4443   -2.8573 H   0  0  0  0  0  0  0  0  0  0  0  0
   -4.8498    0.3492   -2.4349 H   0  0  0  0  0  0  0  0  0  0  0  0
   -4.5058   -2.0876   -0.6049 H   0  0  0  0  0  0  0  0  0  0  0  0
   -3.1912    0.3659    0.0796 H   0  0  0  0  0  0  0  0  0  0  0  0
   -4.9863    1.8156    1.0068 H   0  0  0  0  0  0  0  0  0  0  0  0
   -6.2710    0.6714    0.4215 H   0  0  0  0  0  0  0  0  0  0  0  0
   -5.3166   -1.1679    1.8062 H   0  0  0  0  0  0  0  0  0  0  0  0
   -3.0572    0.7764    2.4593 H   0  0  0  0  0  0  0  0  0  0  0  0
   -4.4178    0.5459    3.5330 H   0  0  0  0  0  0  0  0  0  0  0  0
   -3.0955   -2.0081    2.6819 H   0  0  0  0  0  0  0  0  0  0  0  0
   -3.7672   -1.5344    4.2330 H   0  0  0  0  0  0  0  0  0  0  0  0
   -1.4453   -1.6788    4.6652 H   0  0  0  0  0  0  0  0  0  0  0  0
   -1.6614    0.0568    4.4585 H   0  0  0  0  0  0  0  0  0  0  0  0
   -0.8831    1.0772    2.4832 H   0  0  0  0  0  0  0  0  0  0  0  0
   -0.9764   -0.5979    0.3914 H   0  0  0  0  0  0  0  0  0  0  0  0
   -1.1805    2.2694    0.3179 H   0  0  0  0  0  0  0  0  0  0  0  0
   -0.9812    1.4327   -1.1506 H   0  0  0  0  0  0  0  0  0  0  0  0
    3.6825    3.0078   -1.6028 H   0  0  0  0  0  0  0  0  0  0  0  0
    4.3219    2.0579    0.7084 H   0  0  0  0  0  0  0  0  0  0  0  0
    3.3694    3.4044    1.0809 H   0  0  0  0  0  0  0  0  0  0  0  0
    2.2655    1.1299    2.2653 H   0  0  0  0  0  0  0  0  0  0  0  0
    1.5178    3.6309    1.1440 H   0  0  0  0  0  0  0  0  0  0  0  0
    0.3851    3.1741    2.8024 H   0  0  0  0  0  0  0  0  0  0  0  0
   -0.6311   -0.4272   -1.3852 H   0  0  0  0  0  0  0  0  0  0  0  0
    0.5165   -1.5828   -1.3719 H   0  0  0  0  0  0  0  0  0  0  0  0
    0.7858   -0.6181   -3.4495 H   0  0  0  0  0  0  0  0  0  0  0  0
   -0.6580    0.9609   -3.3670 H   0  0  0  0  0  0  0  0  0  0  0  0
    2.8335    1.0285   -3.2754 H   0  0  0  0  0  0  0  0  0  0  0  0
    3.5742   -1.0517   -4.4924 H   0  0  0  0  0  0  0  0  0  0  0  0
    4.2673   -3.4246   -4.4156 H   0  0  0  0  0  0  0  0  0  0  0  0
    4.0254   -4.7474   -2.3427 H   0  0  0  0  0  0  0  0  0  0  0  0
    3.1062   -3.7230   -0.2838 H   0  0  0  0  0  0  0  0  0  0  0  0
    2.7194   -1.5982    0.9948 H   0  0  0  0  0  0  0  0  0  0  0  0
    3.8635    0.3303    0.7877 H   0  0  0  0  0  0  0  0  0  0  0  0
    4.3885   -0.1411   -0.7522 H   0  0  0  0  0  0  0  0  0  0  0  0
  2  1  2  0  0  0  0
  3  2  1  0  0  0  0
  4  3  1  0  0  0  0
  5  4  1  0  0  0  0
  5  3  1  0  0  0  0
  6  5  1  0  0  0  0
  7  6  1  0  0  0  0
  8  7  1  0  0  0  0
  9  8  1  0  0  0  0
 10  9  2  0  0  0  0
 11  9  1  0  0  0  0
 12 11  1  0  0  0  0
 13 12  1  0  0  0  0
 14 13  1  0  0  0  0
 15 14  1  0  0  0  0
 16 15  1  0  0  0  0
 17 16  1  0  0  0  0
 18 17  1  0  0  0  0
 19 18  1  0  0  0  0
 19 14  1  0  0  0  0
 20 19  1  0  0  0  0
 21 18  1  0  0  0  0
 21 12  1  0  0  0  0
 22 21  1  0  0  0  0
 23 22  1  0  0  0  0
 24 23  1  0  0  0  0
 25 23  1  0  0  0  0
 26 25  1  0  0  0  0
 27 26  2  0  0  0  0
 28 27  1  0  0  0  0
 29 28  2  0  0  0  0
 30 29  1  0  0  0  0
 31 30  2  0  0  0  0
 31 26  1  0  0  0  0
 32 31  1  0  0  0  0
 32 21  1  0  0  0  0
 33 32  1  0  0  0  0
 34 33  1  0  0  0  0
 34 16  1  0  0  0  0
 34 25  1  0  0  0  0
 34 14  1  0  0  0  0
  1 35  1  0  0  0  0
  1 36  1  0  0  0  0
  2 37  1  0  0  0  0
  3 38  1  0  0  0  0
  4 39  1  0  0  0  0
  4 40  1  0  0  0  0
  5 41  1  0  0  0  0
  6 42  1  0  0  0  0
  6 43  1  0  0  0  0
  7 44  1  0  0  0  0
  7 45  1  0  0  0  0
  8 46  1  0  0  0  0
  8 47  1  0  0  0  0
 11 48  1  0  0  0  0
 12 49  1  0  0  0  0
 13 50  1  0  0  0  0
 13 51  1  0  0  0  0
 16 52  1  0  0  0  0
 17 53  1  0  0  0  0
 17 54  1  0  0  0  0
 18 55  1  0  0  0  0
 19 56  1  0  0  0  0
 20 57  1  0  0  0  0
 22 58  1  0  0  0  0
 22 59  1  0  0  0  0
 23 60  1  0  0  0  0
 24 61  1  0  0  0  0
 25 62  1  0  0  0  0
 27 63  1  0  0  0  0
 28 64  1  0  0  0  0
 29 65  1  0  0  0  0
 30 66  1  0  0  0  0
 32 67  1  0  0  0  0
 33 68  1  0  0  0  0
 33 69  1  0  0  0  0
M  END
>  <energy>
498.55233599109448

$$$$
