CCCCC12CCC34CC(NC(=O)C(CCC(=O)O)NC(=O)OC(C)(C)C)c5c6ccc(C)c5OC1C23CCC4(OC)C6
                    3D

 91 96  0  0  0  0  0  0  0  0999 V2000
    5.3902    0.2698    4.2453 C   0  0  0  0  0  0  0  0  0  0  0  0
    4.1115    0.0988    3.4391 C   0  0  0  0  0  0  0  0  0  0  0  0
    4.3922   -0.0087    1.9374 C   0  0  0  0  0  0  0  0  0  0  0  0
    4.5136    1.3541    1.1953 C   0  0  0  0  0  0  0  0  0  0  0  0
    3.3886    1.4361    0.1686 C   0  0  0  0  0  0  0  0  0  0  0  0
    3.7875    0.6443   -1.0909 C   0  0  0  0  0  0  0  0  0  0  0  0
    2.9204    1.0664   -2.2857 C   0  0  0  0  0  0  0  0  0  0  0  0
    1.5840    1.4011   -1.6002 C   0  0  0  0  0  0  0  0  0  0  0  0
    0.9227    0.0386   -1.3404 C   0  0  0  0  0  0  0  0  0  0  0  0
   -0.0600   -0.0421   -0.1887 C   0  0  0  0  0  0  0  0  0  0  0  0
   -0.9826   -1.1558   -0.3792 N   0  0  0  0  0  0  0  0  0  0  0  0
   -0.5250   -2.4461   -0.0788 C   0  0  0  0  0  0  0  0  0  0  0  0
    0.5593   -2.6369    0.4977 O   0  0  0  0  0  0  0  0  0  0  0  0
   -1.2871   -3.6675   -0.6619 C   0  0  0  0  0  0  0  0  0  0  0  0
   -1.2300   -4.9165    0.2578 C   0  0  0  0  0  0  0  0  0  0  0  0
    0.1375   -5.6052    0.3798 C   0  0  0  0  0  0  0  0  0  0  0  0
    0.7104   -5.9482   -0.9751 C   0  0  0  0  0  0  0  0  0  0  0  0
    0.3309   -6.8812   -1.6660 O   0  0  0  0  0  0  0  0  0  0  0  0
    1.6643   -5.0768   -1.3791 O   0  0  0  0  0  0  0  0  0  0  0  0
   -2.6160   -3.2856   -1.1162 N   0  0  0  0  0  0  0  0  0  0  0  0
   -3.6417   -3.0448   -0.2565 C   0  0  0  0  0  0  0  0  0  0  0  0
   -3.7805   -3.5546    0.8343 O   0  0  0  0  0  0  0  0  0  0  0  0
   -4.3842   -2.0406   -0.7932 O   0  0  0  0  0  0  0  0  0  0  0  0
   -5.4065   -1.3809    0.0087 C   0  0  0  0  0  0  0  0  0  0  0  0
   -5.8216   -0.1575   -0.8094 C   0  0  0  0  0  0  0  0  0  0  0  0
   -4.8482   -0.8818    1.3503 C   0  0  0  0  0  0  0  0  0  0  0  0
   -6.6159   -2.2998    0.1895 C   0  0  0  0  0  0  0  0  0  0  0  0
   -0.6119    1.2942    0.2581 C   0  0  0  0  0  0  0  0  0  0  0  0
   -1.1889    2.2947   -0.5249 C   0  0  0  0  0  0  0  0  0  0  0  0
   -1.7494    3.4448    0.0674 C   0  0  0  0  0  0  0  0  0  0  0  0
   -1.5340    3.6970    1.4227 C   0  0  0  0  0  0  0  0  0  0  0  0
   -0.5910    2.9242    2.1031 C   0  0  0  0  0  0  0  0  0  0  0  0
   -0.1223    3.3633    3.4476 C   0  0  0  0  0  0  0  0  0  0  0  0
   -0.0897    1.7788    1.4584 C   0  0  0  0  0  0  0  0  0  0  0  0
    1.1687    1.2523    1.7424 O   0  0  0  0  0  0  0  0  0  0  0  0
    2.1791    2.0116    1.0194 C   0  0  0  0  0  0  0  0  0  0  0  0
    2.1530    2.2418   -0.4159 C   0  0  0  0  0  0  0  0  0  0  0  0
    2.1467    3.6798   -0.8484 C   0  0  0  0  0  0  0  0  0  0  0  0
    1.3131    3.7476   -2.1428 C   0  0  0  0  0  0  0  0  0  0  0  0
    0.6431    2.3617   -2.4095 C   0  0  0  0  0  0  0  0  0  0  0  0
    0.8015    2.1676   -3.8356 O   0  0  0  0  0  0  0  0  0  0  0  0
   -0.2167    1.4807   -4.5485 C   0  0  0  0  0  0  0  0  0  0  0  0
   -0.8936    2.2848   -1.9991 C   0  0  0  0  0  0  0  0  0  0  0  0
    5.9560    1.1471    3.9197 H   0  0  0  0  0  0  0  0  0  0  0  0
    6.0433   -0.6042    4.1430 H   0  0  0  0  0  0  0  0  0  0  0  0
    5.1500    0.3865    5.3077 H   0  0  0  0  0  0  0  0  0  0  0  0
    3.6157   -0.8212    3.7776 H   0  0  0  0  0  0  0  0  0  0  0  0
    3.4174    0.9194    3.6485 H   0  0  0  0  0  0  0  0  0  0  0  0
    3.5736   -0.5940    1.5025 H   0  0  0  0  0  0  0  0  0  0  0  0
    5.3007   -0.5983    1.7668 H   0  0  0  0  0  0  0  0  0  0  0  0
    4.5482    2.1981    1.8884 H   0  0  0  0  0  0  0  0  0  0  0  0
    5.4845    1.3817    0.6790 H   0  0  0  0  0  0  0  0  0  0  0  0
    3.7465   -0.4353   -0.9151 H   0  0  0  0  0  0  0  0  0  0  0  0
    4.8230    0.8920   -1.3585 H   0  0  0  0  0  0  0  0  0  0  0  0
    2.8604    0.2742   -3.0428 H   0  0  0  0  0  0  0  0  0  0  0  0
    3.3617    1.9464   -2.7700 H   0  0  0  0  0  0  0  0  0  0  0  0
    1.6732   -0.7371   -1.1514 H   0  0  0  0  0  0  0  0  0  0  0  0
    0.4572   -0.3057   -2.2713 H   0  0  0  0  0  0  0  0  0  0  0  0
    0.5341   -0.4025    0.6481 H   0  0  0  0  0  0  0  0  0  0  0  0
   -1.8018   -1.0149   -0.9597 H   0  0  0  0  0  0  0  0  0  0  0  0
   -0.7597   -3.9033   -1.5962 H   0  0  0  0  0  0  0  0  0  0  0  0
   -1.9431   -5.6615   -0.1275 H   0  0  0  0  0  0  0  0  0  0  0  0
   -1.5673   -4.6539    1.2697 H   0  0  0  0  0  0  0  0  0  0  0  0
    0.0256   -6.5570    0.9162 H   0  0  0  0  0  0  0  0  0  0  0  0
    0.8488   -5.0198    0.9775 H   0  0  0  0  0  0  0  0  0  0  0  0
    1.9011   -4.3863   -0.7214 H   0  0  0  0  0  0  0  0  0  0  0  0
   -2.6767   -2.7780   -1.9870 H   0  0  0  0  0  0  0  0  0  0  0  0
   -4.9766    0.5334   -0.9287 H   0  0  0  0  0  0  0  0  0  0  0  0
   -6.6418    0.3790   -0.3267 H   0  0  0  0  0  0  0  0  0  0  0  0
   -6.1355   -0.4415   -1.8205 H   0  0  0  0  0  0  0  0  0  0  0  0
   -3.9444   -0.2852    1.1954 H   0  0  0  0  0  0  0  0  0  0  0  0
   -4.5760   -1.6904    2.0292 H   0  0  0  0  0  0  0  0  0  0  0  0
   -5.5833   -0.2678    1.8735 H   0  0  0  0  0  0  0  0  0  0  0  0
   -7.4195   -1.7866    0.7245 H   0  0  0  0  0  0  0  0  0  0  0  0
   -7.0044   -2.6255   -0.7817 H   0  0  0  0  0  0  0  0  0  0  0  0
   -6.3675   -3.2071    0.7462 H   0  0  0  0  0  0  0  0  0  0  0  0
   -2.2750    4.1865   -0.5355 H   0  0  0  0  0  0  0  0  0  0  0  0
   -1.9722    4.5722    1.8882 H   0  0  0  0  0  0  0  0  0  0  0  0
    0.0231    4.4495    3.4421 H   0  0  0  0  0  0  0  0  0  0  0  0
   -0.8612    3.1278    4.2212 H   0  0  0  0  0  0  0  0  0  0  0  0
    0.8269    2.8928    3.7141 H   0  0  0  0  0  0  0  0  0  0  0  0
    2.5073    2.8637    1.6226 H   0  0  0  0  0  0  0  0  0  0  0  0
    1.6877    4.3324   -0.0982 H   0  0  0  0  0  0  0  0  0  0  0  0
    3.1706    4.0299   -1.0081 H   0  0  0  0  0  0  0  0  0  0  0  0
    1.9854    4.0277   -2.9657 H   0  0  0  0  0  0  0  0  0  0  0  0
    0.5766    4.5549   -2.0974 H   0  0  0  0  0  0  0  0  0  0  0  0
   -1.1776    1.9918   -4.4362 H   0  0  0  0  0  0  0  0  0  0  0  0
    0.0243    1.4837   -5.6167 H   0  0  0  0  0  0  0  0  0  0  0  0
   -0.2834    0.4449   -4.2071 H   0  0  0  0  0  0  0  0  0  0  0  0
   -1.3565    1.3524   -2.3580 H   0  0  0  0  0  0  0  0  0  0  0  0
   -1.4210    3.1060   -2.4970 H   0  0  0  0  0  0  0  0  0  0  0  0
  2  1  1  0  0  0  0
  3  2  1  0  0  0  0
  4  3  1  0  0  0  0
  5  4  1  0  0  0  0
  6  5  1  0  0  0  0
  7  6  1  0  0  0  0
  8  7  1  0  0  0  0
  9  8  1  0  0  0  0
 10  9  1  0  0  0  0
 11 10  1  0  0  0  0
 12 11  1  0  0  0  0
 13 12  2  0  0  0  0
 14 12  1  0  0  0  0
 15 14  1  0  0  0  0
 16 15  1  0  0  0  0
 17 16  1  0  0  0  0
 18 17  2  0  0  0  0
 19 17  1  0  0  0  0
 20 14  1  0  0  0  0
 21 20  1  0  0  0  0
 22 21  2  0  0  0  0
 23 21  1  0  0  0  0
 24 23  1  0  0  0  0
 25 24  1  0  0  0  0
 26 24  1  0  0  0  0
 27 24  1  0  0  0  0
 28 10  1  0  0  0  0
 29 28  2  0  0  0  0
 30 29  1  0  0  0  0
 31 30  2  0  0  0  0
 32 31  1  0  0  0  0
 33 32  1  0  0  0  0
 34 32  2  0  0  0  0
 34 28  1  0  0  0  0
 35 34  1  0  0  0  0
 36 35  1  0  0  0  0
 36  5  1  0  0  0  0
 37 36  1  0  0  0  0
 37  5  1  0  0  0  0
 37  8  1  0  0  0  0
 38 37  1  0  0  0  0
 39 38  1  0  0  0  0
 40 39  1  0  0  0  0
 40  8  1  0  0  0  0
 41 40  1  0  0  0  0
 42 41  1  0  0  0  0
 43 40  1  0  0  0  0
 43 29  1  0  0  0  0
  1 44  1  0  0  0  0
  1 45  1  0  0  0  0
  1 46  1  0  0  0  0
  2 47  1  0  0  0  0
  2 48  1  0  0  0  0
  3 49  1  0  0  0  0
  3 50  1  0  0  0  0
  4 51  1  0  0  0  0
  4 52  1  0  0  0  0
  6 53  1  0  0  0  0
  6 54  1  0  0  0  0
  7 55  1  0  0  0  0
  7 56  1  0  0  0  0
  9 57  1  0  0  0  0
  9 58  1  0  0  0  0
 10 59  1  0  0  0  0
 11 60  1  0  0  0  0
 14 61  1  0  0  0  0
 15 62  1  0  0  0  0
 15 63  1  0  0  0  0
 16 64  1  0  0  0  0
 16 65  1  0  0  0  0
 19 66  1  0  0  0  0
 20 67  1  0  0  0  0
 25 68  1  0  0  0  0
 25 69  1  0  0  0  0
 25 70  1  0  0  0  0
 26 71  1  0  0  0  0
 26 72  1  0  0  0  0
 26 73  1  0  0  0  0
 27 74  1  0  0  0  0
 27 75  1  0  0  0  0
 27 76  1  0  0  0  0
 30 77  1  0  0  0  0
 31 78  1  0  0  0  0
 33 79  1  0  0  0  0
 33 80  1  0  0  0  0
 33 81  1  0  0  0  0
 36 82  1  0  0  0  0
 38 83  1  0  0  0  0
 38 84  1  0  0  0  0
 39 85  1  0  0  0  0
 39 86  1  0  0  0  0
 42 87  1  0  0  0  0
 42 88  1  0  0  0  0
 42 89  1  0  0  0  0
 43 90  1  0  0  0  0
 43 91  1  0  0  0  0
M  END
>  <energy>
143.75497067773188

$$$$
