CC1C(OC(=O)C=Cc2[nH]c(=N)[nH]c2O)C(CO)OC1n1c(=O)[nH]c2nc(OCCCS(=O)(=O)O)cc3nc(=O
                    3D

 71 75  0  0  0  0  0  0  0  0999 V2000
   -3.9718   -4.3986    0.1920 C   0  0  0  0  0  0  0  0  0  0  0  0
   -3.1345   -3.1396   -0.0082 C   0  0  0  0  0  0  0  0  0  0  0  0
   -3.2739   -2.1732    1.1613 C   0  0  0  0  0  0  0  0  0  0  0  0
   -3.0330   -0.8845    0.5513 O   0  0  0  0  0  0  0  0  0  0  0  0
   -3.4812    0.2082    1.2082 C   0  0  0  0  0  0  0  0  0  0  0  0
   -3.9795    0.2585    2.3149 O   0  0  0  0  0  0  0  0  0  0  0  0
   -3.1819    1.3452    0.3106 C   0  0  0  0  0  0  0  0  0  0  0  0
   -3.0349    2.5814    0.7999 C   0  0  0  0  0  0  0  0  0  0  0  0
   -2.4710    3.6729    0.0568 C   0  0  0  0  0  0  0  0  0  0  0  0
   -2.3173    3.7344   -1.3218 N   0  0  0  0  0  0  0  0  0  0  0  0
   -1.5608    4.8250   -1.6943 C   0  0  0  0  0  0  0  0  0  0  0  0
   -1.1715    5.1286   -2.8717 N   0  0  0  0  0  0  0  0  0  0  0  0
   -1.3109    5.4808   -0.5096 N   0  0  0  0  0  0  0  0  0  0  0  0
   -1.8544    4.7773    0.5444 C   0  0  0  0  0  0  0  0  0  0  0  0
   -1.6816    5.1838    1.8233 O   0  0  0  0  0  0  0  0  0  0  0  0
   -2.1325   -2.5426    2.1075 C   0  0  0  0  0  0  0  0  0  0  0  0
   -2.5802   -3.2774    3.3724 C   0  0  0  0  0  0  0  0  0  0  0  0
   -1.4519   -3.5075    4.2224 O   0  0  0  0  0  0  0  0  0  0  0  0
   -1.2697   -3.4525    1.3796 O   0  0  0  0  0  0  0  0  0  0  0  0
   -1.6303   -3.4483   -0.0067 C   0  0  0  0  0  0  0  0  0  0  0  0
   -0.8276   -2.4820   -0.7733 N   0  0  0  0  0  0  0  0  0  0  0  0
    0.0765   -1.6445   -0.1277 C   0  0  0  0  0  0  0  0  0  0  0  0
    0.8259   -1.9761    0.7843 O   0  0  0  0  0  0  0  0  0  0  0  0
    0.1067   -0.3833   -0.6707 N   0  0  0  0  0  0  0  0  0  0  0  0
    1.0167   -0.2843   -1.6866 C   0  0  0  0  0  0  0  0  0  0  0  0
    2.1759    0.1963   -1.3873 N   0  0  0  0  0  0  0  0  0  0  0  0
    3.3480    0.2668   -2.1152 C   0  0  0  0  0  0  0  0  0  0  0  0
    4.3716    1.0316   -1.5498 O   0  0  0  0  0  0  0  0  0  0  0  0
    4.5013    0.7729   -0.1402 C   0  0  0  0  0  0  0  0  0  0  0  0
    5.2670    1.9108    0.5426 C   0  0  0  0  0  0  0  0  0  0  0  0
    5.1860    1.7870    2.0619 C   0  0  0  0  0  0  0  0  0  0  0  0
    3.7176    2.5453    2.7624 S   0  0  0  0  0  0  0  0  0  0  0  0
    2.5516    2.2776    1.9579 O   0  0  0  0  0  0  0  0  0  0  0  0
    3.7240    2.3602    4.1944 O   0  0  0  0  0  0  0  0  0  0  0  0
    4.1319    4.0880    2.5387 O   0  0  0  0  0  0  0  0  0  0  0  0
    3.6607   -0.3962   -3.2438 C   0  0  0  0  0  0  0  0  0  0  0  0
    2.5873   -1.2488   -3.7285 C   0  0  0  0  0  0  0  0  0  0  0  0
    2.5529   -2.5264   -3.5355 N   0  0  0  0  0  0  0  0  0  0  0  0
    1.2967   -3.0766   -3.3187 C   0  0  0  0  0  0  0  0  0  0  0  0
    1.0920   -4.2766   -3.4708 O   0  0  0  0  0  0  0  0  0  0  0  0
    0.2866   -2.2075   -2.8517 N   0  0  0  0  0  0  0  0  0  0  0  0
   -0.8140   -2.6929   -2.1631 C   0  0  0  0  0  0  0  0  0  0  0  0
   -1.7447   -3.2564   -2.7387 O   0  0  0  0  0  0  0  0  0  0  0  0
    0.5331   -0.7722   -2.8927 N   0  0  0  0  0  0  0  0  0  0  0  0
    1.3172   -0.4919   -3.9683 C   0  0  0  0  0  0  0  0  0  0  0  0
    1.1392    0.2484   -4.9125 O   0  0  0  0  0  0  0  0  0  0  0  0
   -3.9521   -4.9981   -0.7242 H   0  0  0  0  0  0  0  0  0  0  0  0
   -3.5948   -5.0203    1.0116 H   0  0  0  0  0  0  0  0  0  0  0  0
   -5.0155   -4.1404    0.3952 H   0  0  0  0  0  0  0  0  0  0  0  0
   -3.4497   -2.6683   -0.9465 H   0  0  0  0  0  0  0  0  0  0  0  0
   -4.2660   -2.1788    1.6284 H   0  0  0  0  0  0  0  0  0  0  0  0
   -2.9626    1.0947   -0.7197 H   0  0  0  0  0  0  0  0  0  0  0  0
   -3.2159    2.7573    1.8532 H   0  0  0  0  0  0  0  0  0  0  0  0
   -2.7211    3.0931   -1.9813 H   0  0  0  0  0  0  0  0  0  0  0  0
   -0.6260    5.9930   -2.8233 H   0  0  0  0  0  0  0  0  0  0  0  0
   -0.5105    6.0650   -0.3554 H   0  0  0  0  0  0  0  0  0  0  0  0
   -2.1882    4.5875    2.3993 H   0  0  0  0  0  0  0  0  0  0  0  0
   -1.5230   -1.6722    2.3879 H   0  0  0  0  0  0  0  0  0  0  0  0
   -3.3088   -2.6862    3.9356 H   0  0  0  0  0  0  0  0  0  0  0  0
   -3.0096   -4.2610    3.1459 H   0  0  0  0  0  0  0  0  0  0  0  0
   -0.7329   -3.8365    3.6460 H   0  0  0  0  0  0  0  0  0  0  0  0
   -1.4342   -4.4493   -0.4179 H   0  0  0  0  0  0  0  0  0  0  0  0
   -0.8163   -0.1845   -1.0305 H   0  0  0  0  0  0  0  0  0  0  0  0
    3.5340    0.6603    0.3553 H   0  0  0  0  0  0  0  0  0  0  0  0
    5.0505   -0.1671   -0.0168 H   0  0  0  0  0  0  0  0  0  0  0  0
    6.3164    1.8476    0.2248 H   0  0  0  0  0  0  0  0  0  0  0  0
    4.9061    2.8882    0.1975 H   0  0  0  0  0  0  0  0  0  0  0  0
    6.0388    2.2705    2.5491 H   0  0  0  0  0  0  0  0  0  0  0  0
    5.1715    0.7385    2.3728 H   0  0  0  0  0  0  0  0  0  0  0  0
    4.1239    4.5212    3.4205 H   0  0  0  0  0  0  0  0  0  0  0  0
    4.6288   -0.3956   -3.7069 H   0  0  0  0  0  0  0  0  0  0  0  0
  2  1  1  0  0  0  0
  3  2  1  0  0  0  0
  4  3  1  0  0  0  0
  5  4  1  0  0  0  0
  6  5  2  0  0  0  0
  7  5  1  0  0  0  0
  8  7  2  0  0  0  0
  9  8  1  0  0  0  0
 10  9  1  0  0  0  0
 11 10  1  0  0  0  0
 12 11  2  0  0  0  0
 13 11  1  0  0  0  0
 14 13  1  0  0  0  0
 14  9  2  0  0  0  0
 15 14  1  0  0  0  0
 16  3  1  0  0  0  0
 17 16  1  0  0  0  0
 18 17  1  0  0  0  0
 19 16  1  0  0  0  0
 20 19  1  0  0  0  0
 20  2  1  0  0  0  0
 21 20  1  0  0  0  0
 22 21  1  0  0  0  0
 23 22  2  0  0  0  0
 24 22  1  0  0  0  0
 25 24  1  0  0  0  0
 26 25  2  0  0  0  0
 27 26  1  0  0  0  0
 28 27  1  0  0  0  0
 29 28  1  0  0  0  0
 30 29  1  0  0  0  0
 31 30  1  0  0  0  0
 32 31  1  0  0  0  0
 33 32  2  0  0  0  0
 34 32  2  0  0  0  0
 35 32  1  0  0  0  0
 36 27  2  0  0  0  0
 37 36  1  0  0  0  0
 38 37  2  0  0  0  0
 39 38  1  0  0  0  0
 40 39  2  0  0  0  0
 41 39  1  0  0  0  0
 42 41  1  0  0  0  0
 42 21  1  0  0  0  0
 43 42  2  0  0  0  0
 44 41  1  0  0  0  0
 44 25  1  0  0  0  0
 45 44  1  0  0  0  0
 45 37  1  0  0  0  0
 46 45  2  0  0  0  0
  1 47  1  0  0  0  0
  1 48  1  0  0  0  0
  1 49  1  0  0  0  0
  2 50  1  0  0  0  0
  3 51  1  0  0  0  0
  7 52  1  0  0  0  0
  8 53  1  0  0  0  0
 10 54  1  0  0  0  0
 12 55  1  0  0  0  0
 13 56  1  0  0  0  0
 15 57  1  0  0  0  0
 16 58  1  0  0  0  0
 17 59  1  0  0  0  0
 17 60  1  0  0  0  0
 18 61  1  0  0  0  0
 20 62  1  0  0  0  0
 24 63  1  0  0  0  0
 29 64  1  0  0  0  0
 29 65  1  0  0  0  0
 30 66  1  0  0  0  0
 30 67  1  0  0  0  0
 31 68  1  0  0  0  0
 31 69  1  0  0  0  0
 35 70  1  0  0  0  0
 36 71  1  0  0  0  0
M  END
>  <energy>
-156.50742694703951

$$$$
