[O-][n+]1[nH]c2cc3c4c(c2c2cc(cc1-4)SC=CN2)C=C3
                    3D

 29 33  0  0  0  0  0  0  0  0999 V2000
   -0.3019    2.9154   -0.5491 O   0  5  0  0  0  0  0  0  0  0  0  0
    0.3676    1.8521   -0.3579 N   0  3  0  0  0  0  0  0  0  0  0  0
    0.7454    1.1245   -1.5614 N   0  0  0  0  0  0  0  0  0  0  0  0
    1.3885   -0.1785   -1.2852 C   0  0  0  0  0  0  0  0  0  0  0  0
    2.6955    0.1461   -0.8069 C   0  0  0  0  0  0  0  0  0  0  0  0
    2.7382    0.1142    0.5848 C   0  0  0  0  0  0  0  0  0  0  0  0
    1.5132    0.1753    1.1576 C   0  0  0  0  0  0  0  0  0  0  0  0
    1.1407   -1.0790    0.9024 C   0  0  0  0  0  0  0  0  0  0  0  0
    0.5770   -1.0444   -0.3931 C   0  0  0  0  0  0  0  0  0  0  0  0
   -0.9410   -1.1383   -0.3435 C   0  0  0  0  0  0  0  0  0  0  0  0
   -1.4800   -0.9494    0.9015 C   0  0  0  0  0  0  0  0  0  0  0  0
   -1.7262    0.4648    1.3703 C   0  0  0  0  0  0  0  0  0  0  0  0
   -0.7694    1.3765    1.7053 C   0  0  0  0  0  0  0  0  0  0  0  0
    0.4587    1.2635    0.8402 C   0  0  0  0  0  0  0  0  0  0  0  0
   -3.3906    1.0858    1.0573 S   0  0  0  0  0  0  0  0  0  0  0  0
   -3.6395    0.2169   -0.4876 C   0  0  0  0  0  0  0  0  0  0  0  0
   -2.6360    0.2295   -1.3974 C   0  0  0  0  0  0  0  0  0  0  0  0
   -1.7097   -0.8575   -1.5070 N   0  0  0  0  0  0  0  0  0  0  0  0
    2.2361   -1.8230    1.2005 C   0  0  0  0  0  0  0  0  0  0  0  0
    3.2938   -1.0044    1.0568 C   0  0  0  0  0  0  0  0  0  0  0  0
    1.2820    1.7209   -2.1772 H   0  0  0  0  0  0  0  0  0  0  0  0
    3.5582   -0.0066   -1.4461 H   0  0  0  0  0  0  0  0  0  0  0  0
   -2.4156   -1.4858    1.0894 H   0  0  0  0  0  0  0  0  0  0  0  0
   -1.0606    2.4003    1.9376 H   0  0  0  0  0  0  0  0  0  0  0  0
   -4.2206   -0.6913   -0.3540 H   0  0  0  0  0  0  0  0  0  0  0  0
   -2.0416    1.1399   -1.4856 H   0  0  0  0  0  0  0  0  0  0  0  0
   -2.2543   -1.7020   -1.6972 H   0  0  0  0  0  0  0  0  0  0  0  0
    2.2964   -2.9003    1.1659 H   0  0  0  0  0  0  0  0  0  0  0  0
    4.2955   -1.3653    0.8794 H   0  0  0  0  0  0  0  0  0  0  0  0
  2  1  1  0  0  0  0
  3  2  1  0  0  0  0
  4  3  1  0  0  0  0
  5  4  2  0  0  0  0
  6  5  1  0  0  0  0
  7  6  2  0  0  0  0
  8  7  1  0  0  0  0
  9  8  2  0  0  0  0
  9  4  1  0  0  0  0
 10  9  1  0  0  0  0
 11 10  2  0  0  0  0
 12 11  1  0  0  0  0
 13 12  2  0  0  0  0
 14 13  1  0  0  0  0
 14  2  2  0  0  0  0
 14  7  1  0  0  0  0
 15 12  1  0  0  0  0
 16 15  1  0  0  0  0
 17 16  2  0  0  0  0
 18 17  1  0  0  0  0
 18 10  1  0  0  0  0
 19  8  1  0  0  0  0
 20 19  2  0  0  0  0
 20  6  1  0  0  0  0
  3 21  1  0  0  0  0
  5 22  1  0  0  0  0
 11 23  1  0  0  0  0
 13 24  1  0  0  0  0
 16 25  1  0  0  0  0
 17 26  1  0  0  0  0
 18 27  1  0  0  0  0
 19 28  1  0  0  0  0
 20 29  1  0  0  0  0
M  CHG  2   1  -1   2   1
M  END
>  <energy>
415.81394373287185

$$$$
