COC1(C(=O)N(C)C)Cc2c3c4c(c(=O)n2C)C=C3C=C(Br)C(Cc2cccnc2)C4C1
                    3D

 58 62  0  0  0  0  0  0  0  0999 V2000
   -2.1618    1.5408    2.6103 C   0  0  0  0  0  0  0  0  0  0  0  0
   -1.5019    1.6276    1.3584 O   0  0  0  0  0  0  0  0  0  0  0  0
   -2.0134    0.8461    0.2577 C   0  0  0  0  0  0  0  0  0  0  0  0
   -3.3203    1.5326   -0.2845 C   0  0  0  0  0  0  0  0  0  0  0  0
   -4.2610    1.8681    0.4386 O   0  0  0  0  0  0  0  0  0  0  0  0
   -3.4016    1.6767   -1.6771 N   0  0  0  0  0  0  0  0  0  0  0  0
   -4.4259    0.8515   -2.2886 C   0  0  0  0  0  0  0  0  0  0  0  0
   -3.4766    3.0640   -2.1063 C   0  0  0  0  0  0  0  0  0  0  0  0
   -2.4368   -0.6508    0.6540 C   0  0  0  0  0  0  0  0  0  0  0  0
   -1.3231   -1.7092    0.8288 C   0  0  0  0  0  0  0  0  0  0  0  0
   -0.2839   -1.5150   -0.0090 C   0  0  0  0  0  0  0  0  0  0  0  0
    0.5002   -0.4514    0.6711 C   0  0  0  0  0  0  0  0  0  0  0  0
    1.2911   -1.2099    1.4800 C   0  0  0  0  0  0  0  0  0  0  0  0
    0.3647   -1.7725    2.5905 C   0  0  0  0  0  0  0  0  0  0  0  0
    0.7785   -1.9384    3.7355 O   0  0  0  0  0  0  0  0  0  0  0  0
   -0.9614   -2.0468    2.1503 N   0  0  0  0  0  0  0  0  0  0  0  0
   -1.9304   -2.4874    3.1283 C   0  0  0  0  0  0  0  0  0  0  0  0
    1.7422   -2.3096    0.5891 C   0  0  0  0  0  0  0  0  0  0  0  0
    0.8260   -2.3942   -0.4056 C   0  0  0  0  0  0  0  0  0  0  0  0
    1.3319   -2.2877   -1.7610 C   0  0  0  0  0  0  0  0  0  0  0  0
    1.6315   -1.0807   -2.2997 C   0  0  0  0  0  0  0  0  0  0  0  0
    2.1547   -1.0438   -4.1197 Br  0  0  0  0  0  0  0  0  0  0  0  0
    1.5424    0.3386   -1.6485 C   0  0  0  0  0  0  0  0  0  0  0  0
    2.9336    1.0234   -1.4950 C   0  0  0  0  0  0  0  0  0  0  0  0
    3.9791    0.3221   -0.6774 C   0  0  0  0  0  0  0  0  0  0  0  0
    4.0704    0.5088    0.7031 C   0  0  0  0  0  0  0  0  0  0  0  0
    5.0960   -0.1052    1.4184 C   0  0  0  0  0  0  0  0  0  0  0  0
    6.0024   -0.8879    0.7246 C   0  0  0  0  0  0  0  0  0  0  0  0
    5.9436   -1.1012   -0.6061 N   0  0  0  0  0  0  0  0  0  0  0  0
    4.9402   -0.4899   -1.2759 C   0  0  0  0  0  0  0  0  0  0  0  0
    0.6199    0.6218   -0.3679 C   0  0  0  0  0  0  0  0  0  0  0  0
   -0.8668    0.9564   -0.8368 C   0  0  0  0  0  0  0  0  0  0  0  0
   -1.8231    2.3790    3.2251 H   0  0  0  0  0  0  0  0  0  0  0  0
   -3.2484    1.5985    2.5343 H   0  0  0  0  0  0  0  0  0  0  0  0
   -1.8711    0.6240    3.1269 H   0  0  0  0  0  0  0  0  0  0  0  0
   -4.3108    0.8841   -3.3745 H   0  0  0  0  0  0  0  0  0  0  0  0
   -5.4205    1.2108   -2.0051 H   0  0  0  0  0  0  0  0  0  0  0  0
   -4.3233   -0.1812   -1.9472 H   0  0  0  0  0  0  0  0  0  0  0  0
   -3.3057    3.1093   -3.1851 H   0  0  0  0  0  0  0  0  0  0  0  0
   -2.7126    3.6572   -1.5954 H   0  0  0  0  0  0  0  0  0  0  0  0
   -4.4590    3.4843   -1.8655 H   0  0  0  0  0  0  0  0  0  0  0  0
   -3.1018   -1.0442   -0.1287 H   0  0  0  0  0  0  0  0  0  0  0  0
   -3.0526   -0.6182    1.5596 H   0  0  0  0  0  0  0  0  0  0  0  0
   -2.8719   -2.7663    2.6481 H   0  0  0  0  0  0  0  0  0  0  0  0
   -1.5248   -3.3602    3.6483 H   0  0  0  0  0  0  0  0  0  0  0  0
   -2.1012   -1.6930    3.8598 H   0  0  0  0  0  0  0  0  0  0  0  0
    2.7981   -2.5366    0.5015 H   0  0  0  0  0  0  0  0  0  0  0  0
    1.4122   -3.2096   -2.3295 H   0  0  0  0  0  0  0  0  0  0  0  0
    1.0535    0.9516   -2.4227 H   0  0  0  0  0  0  0  0  0  0  0  0
    3.3532    1.2146   -2.4934 H   0  0  0  0  0  0  0  0  0  0  0  0
    2.7927    2.0323   -1.0789 H   0  0  0  0  0  0  0  0  0  0  0  0
    3.3534    1.1367    1.2264 H   0  0  0  0  0  0  0  0  0  0  0  0
    5.1848    0.0285    2.4910 H   0  0  0  0  0  0  0  0  0  0  0  0
    6.8297   -1.3725    1.2386 H   0  0  0  0  0  0  0  0  0  0  0  0
    4.9453   -0.6693   -2.3477 H   0  0  0  0  0  0  0  0  0  0  0  0
    0.9816    1.5244    0.1433 H   0  0  0  0  0  0  0  0  0  0  0  0
   -1.1356    0.3304   -1.7002 H   0  0  0  0  0  0  0  0  0  0  0  0
   -0.8255    1.9887   -1.2086 H   0  0  0  0  0  0  0  0  0  0  0  0
  2  1  1  0  0  0  0
  3  2  1  0  0  0  0
  4  3  1  0  0  0  0
  5  4  2  0  0  0  0
  6  4  1  0  0  0  0
  7  6  1  0  0  0  0
  8  6  1  0  0  0  0
  9  3  1  0  0  0  0
 10  9  1  0  0  0  0
 11 10  2  0  0  0  0
 12 11  1  0  0  0  0
 13 12  2  0  0  0  0
 14 13  1  0  0  0  0
 15 14  2  0  0  0  0
 16 14  1  0  0  0  0
 16 10  1  0  0  0  0
 17 16  1  0  0  0  0
 18 13  1  0  0  0  0
 19 18  2  0  0  0  0
 19 11  1  0  0  0  0
 20 19  1  0  0  0  0
 21 20  2  0  0  0  0
 22 21  1  0  0  0  0
 23 21  1  0  0  0  0
 24 23  1  0  0  0  0
 25 24  1  0  0  0  0
 26 25  2  0  0  0  0
 27 26  1  0  0  0  0
 28 27  2  0  0  0  0
 29 28  1  0  0  0  0
 30 29  2  0  0  0  0
 30 25  1  0  0  0  0
 31 23  1  0  0  0  0
 31 12  1  0  0  0  0
 32 31  1  0  0  0  0
 32  3  1  0  0  0  0
  1 33  1  0  0  0  0
  1 34  1  0  0  0  0
  1 35  1  0  0  0  0
  7 36  1  0  0  0  0
  7 37  1  0  0  0  0
  7 38  1  0  0  0  0
  8 39  1  0  0  0  0
  8 40  1  0  0  0  0
  8 41  1  0  0  0  0
  9 42  1  0  0  0  0
  9 43  1  0  0  0  0
 17 44  1  0  0  0  0
 17 45  1  0  0  0  0
 17 46  1  0  0  0  0
 18 47  1  0  0  0  0
 20 48  1  0  0  0  0
 23 49  1  0  0  0  0
 24 50  1  0  0  0  0
 24 51  1  0  0  0  0
 26 52  1  0  0  0  0
 27 53  1  0  0  0  0
 28 54  1  0  0  0  0
 30 55  1  0  0  0  0
 31 56  1  0  0  0  0
 32 57  1  0  0  0  0
 32 58  1  0  0  0  0
M  END
>  <energy>
320.03601618056871

$$$$
