C1OC2CNC12
                    3D

 13 14  0  0  0  0  0  0  0  0999 V2000
   -1.5628   -0.0592   -0.2945 C   0  0  0  0  0  0  0  0  0  0  0  0
   -0.8994   -1.3269   -0.5490 O   0  0  0  0  0  0  0  0  0  0  0  0
    0.2443   -0.8993    0.2287 C   0  0  0  0  0  0  0  0  0  0  0  0
    1.3606   -0.0858   -0.4338 C   0  0  0  0  0  0  0  0  0  0  0  0
    0.6087    1.1595   -0.1867 N   0  0  0  0  0  0  0  0  0  0  0  0
   -0.4060    0.4258    0.5811 C   0  0  0  0  0  0  0  0  0  0  0  0
   -1.7523    0.4949   -1.2192 H   0  0  0  0  0  0  0  0  0  0  0  0
   -2.5060   -0.2137    0.2381 H   0  0  0  0  0  0  0  0  0  0  0  0
    0.4977   -1.5715    1.0511 H   0  0  0  0  0  0  0  0  0  0  0  0
    1.5253   -0.3026   -1.4936 H   0  0  0  0  0  0  0  0  0  0  0  0
    2.3206   -0.1359    0.0907 H   0  0  0  0  0  0  0  0  0  0  0  0
    1.1285    1.8498    0.3540 H   0  0  0  0  0  0  0  0  0  0  0  0
   -0.5589    0.6650    1.6329 H   0  0  0  0  0  0  0  0  0  0  0  0
  2  1  1  0  0  0  0
  3  2  1  0  0  0  0
  4  3  1  0  0  0  0
  5  4  1  0  0  0  0
  6  5  1  0  0  0  0
  6  1  1  0  0  0  0
  6  3  1  0  0  0  0
  1  7  1  0  0  0  0
  1  8  1  0  0  0  0
  3  9  1  0  0  0  0
  4 10  1  0  0  0  0
  4 11  1  0  0  0  0
  5 12  1  0  0  0  0
  6 13  1  0  0  0  0
M  END
>  <energy>
55.902737079920591

$$$$
