C#CC#CC(C)(O)C#[N+]CC1C(NC(=O)CC(C)[O-])C2=C(O)C1[N+]2(C)C
                    3D

 50 51  0  0  0  0  0  0  0  0999 V2000
   -5.2068    1.1690   -4.9968 C   0  0  0  0  0  0  0  0  0  0  0  0
   -4.8550    0.8700   -3.8897 C   0  0  0  0  0  0  0  0  0  0  0  0
   -4.4115    0.5352   -2.6305 C   0  0  0  0  0  0  0  0  0  0  0  0
   -4.0063    0.2235   -1.5484 C   0  0  0  0  0  0  0  0  0  0  0  0
   -3.5065   -0.1846   -0.2248 C   0  0  0  0  0  0  0  0  0  0  0  0
   -4.6741   -0.4626    0.7267 C   0  0  0  0  0  0  0  0  0  0  0  0
   -2.8399   -1.4480   -0.3575 O   0  0  0  0  0  0  0  0  0  0  0  0
   -2.5392    0.8014    0.4001 C   0  0  0  0  0  0  0  0  0  0  0  0
   -1.6666    1.4018    0.9178 N   0  3  0  0  0  0  0  0  0  0  0  0
   -0.7577    0.6413    1.6775 C   0  0  0  0  0  0  0  0  0  0  0  0
    0.6582    0.6729    1.1418 C   0  0  0  0  0  0  0  0  0  0  0  0
    0.8266    0.7549   -0.4040 C   0  0  0  0  0  0  0  0  0  0  0  0
    1.4951   -0.3833   -0.9455 N   0  0  0  0  0  0  0  0  0  0  0  0
    0.6355   -1.3826   -1.4000 C   0  0  0  0  0  0  0  0  0  0  0  0
   -0.5274   -1.1834   -1.7467 O   0  0  0  0  0  0  0  0  0  0  0  0
    1.2580   -2.7565   -1.2923 C   0  0  0  0  0  0  0  0  0  0  0  0
    1.4823   -3.1079    0.2089 C   0  0  0  0  0  0  0  0  0  0  0  0
    1.8726   -4.5880    0.3052 C   0  0  0  0  0  0  0  0  0  0  0  0
    2.4851   -2.3761    0.6890 O   0  5  0  0  0  0  0  0  0  0  0  0
    1.6948    2.0596   -0.2491 C   0  0  0  0  0  0  0  0  0  0  0  0
    0.9107    3.0323    0.4114 C   0  0  0  0  0  0  0  0  0  0  0  0
   -0.2711    3.5334    0.2725 O   0  0  0  0  0  0  0  0  0  0  0  0
    1.3780    1.9998    1.5803 C   0  0  0  0  0  0  0  0  0  0  0  0
    2.6944    2.1546    0.8603 N   0  3  0  0  0  0  0  0  0  0  0  0
    3.6270    1.0021    1.0409 C   0  0  0  0  0  0  0  0  0  0  0  0
    3.3961    3.4721    1.0469 C   0  0  0  0  0  0  0  0  0  0  0  0
   -5.4962    1.4399   -5.9853 H   0  0  0  0  0  0  0  0  0  0  0  0
   -5.2733    0.4312    0.9305 H   0  0  0  0  0  0  0  0  0  0  0  0
   -5.3341   -1.2381    0.3107 H   0  0  0  0  0  0  0  0  0  0  0  0
   -4.3119   -0.8595    1.6829 H   0  0  0  0  0  0  0  0  0  0  0  0
   -2.1054   -1.3321   -1.0005 H   0  0  0  0  0  0  0  0  0  0  0  0
   -1.0792   -0.4062    1.7796 H   0  0  0  0  0  0  0  0  0  0  0  0
   -0.7494    1.0461    2.6964 H   0  0  0  0  0  0  0  0  0  0  0  0
    1.1622   -0.1854    1.5870 H   0  0  0  0  0  0  0  0  0  0  0  0
   -0.0740    0.9831   -0.9857 H   0  0  0  0  0  0  0  0  0  0  0  0
    2.1935   -0.8646   -0.3494 H   0  0  0  0  0  0  0  0  0  0  0  0
    2.1832   -2.7713   -1.8817 H   0  0  0  0  0  0  0  0  0  0  0  0
    0.5664   -3.4650   -1.7635 H   0  0  0  0  0  0  0  0  0  0  0  0
    0.4907   -3.0374    0.6816 H   0  0  0  0  0  0  0  0  0  0  0  0
    1.0800   -5.2156   -0.1209 H   0  0  0  0  0  0  0  0  0  0  0  0
    2.8010   -4.8075   -0.2357 H   0  0  0  0  0  0  0  0  0  0  0  0
    2.0014   -4.9032    1.3458 H   0  0  0  0  0  0  0  0  0  0  0  0
   -0.9695    2.8304    0.4725 H   0  0  0  0  0  0  0  0  0  0  0  0
    1.3448    2.3373    2.6188 H   0  0  0  0  0  0  0  0  0  0  0  0
    4.2743    1.2329    1.8985 H   0  0  0  0  0  0  0  0  0  0  0  0
    4.2437    0.9170    0.1406 H   0  0  0  0  0  0  0  0  0  0  0  0
    3.1245    0.0752    1.2735 H   0  0  0  0  0  0  0  0  0  0  0  0
    3.9521    3.6957    0.1306 H   0  0  0  0  0  0  0  0  0  0  0  0
    4.1064    3.3599    1.8740 H   0  0  0  0  0  0  0  0  0  0  0  0
    2.7165    4.2864    1.3055 H   0  0  0  0  0  0  0  0  0  0  0  0
  2  1  3  0  0  0  0
  3  2  1  0  0  0  0
  4  3  3  0  0  0  0
  5  4  1  0  0  0  0
  6  5  1  0  0  0  0
  7  5  1  0  0  0  0
  8  5  1  0  0  0  0
  9  8  3  0  0  0  0
 10  9  1  0  0  0  0
 11 10  1  0  0  0  0
 12 11  1  0  0  0  0
 13 12  1  0  0  0  0
 14 13  1  0  0  0  0
 15 14  2  0  0  0  0
 16 14  1  0  0  0  0
 17 16  1  0  0  0  0
 18 17  1  0  0  0  0
 19 17  1  0  0  0  0
 20 12  1  0  0  0  0
 21 20  2  0  0  0  0
 22 21  1  0  0  0  0
 23 21  1  0  0  0  0
 23 11  1  0  0  0  0
 24 23  1  0  0  0  0
 24 20  1  0  0  0  0
 25 24  1  0  0  0  0
 26 24  1  0  0  0  0
  1 27  1  0  0  0  0
  6 28  1  0  0  0  0
  6 29  1  0  0  0  0
  6 30  1  0  0  0  0
  7 31  1  0  0  0  0
 10 32  1  0  0  0  0
 10 33  1  0  0  0  0
 11 34  1  0  0  0  0
 12 35  1  0  0  0  0
 13 36  1  0  0  0  0
 16 37  1  0  0  0  0
 16 38  1  0  0  0  0
 17 39  1  0  0  0  0
 18 40  1  0  0  0  0
 18 41  1  0  0  0  0
 18 42  1  0  0  0  0
 22 43  1  0  0  0  0
 23 44  1  0  0  0  0
 25 45  1  0  0  0  0
 25 46  1  0  0  0  0
 25 47  1  0  0  0  0
 26 48  1  0  0  0  0
 26 49  1  0  0  0  0
 26 50  1  0  0  0  0
M  CHG  3   9   1  19  -1  24   1
M  END
>  <energy>
51.496029044520526

$$$$
