C=C(C)C1CCC2(C(=O)NC(C)(C)C(=O)O)CCC(C)(C3(C)CC4C3C3(C)C(C)(C)CC5CC(OCOC)CC(O5)C
                    3D

115120  0  0  0  0  0  0  0  0999 V2000
   -4.6152    3.9261   -1.6707 C   0  0  0  0  0  0  0  0  0  0  0  0
   -4.0318    3.3858   -0.5861 C   0  0  0  0  0  0  0  0  0  0  0  0
   -3.8573    4.2177    0.6637 C   0  0  0  0  0  0  0  0  0  0  0  0
   -3.6004    1.9155   -0.4772 C   0  0  0  0  0  0  0  0  0  0  0  0
   -4.6678    0.9357   -1.0303 C   0  0  0  0  0  0  0  0  0  0  0  0
   -4.2512   -0.5501   -1.0171 C   0  0  0  0  0  0  0  0  0  0  0  0
   -3.0341   -0.8472   -0.1130 C   0  0  0  0  0  0  0  0  0  0  0  0
   -3.4231   -0.5005    1.3674 C   0  0  0  0  0  0  0  0  0  0  0  0
   -4.5536   -0.1357    1.6855 O   0  0  0  0  0  0  0  0  0  0  0  0
   -2.4331   -0.6380    2.3060 N   0  0  0  0  0  0  0  0  0  0  0  0
   -2.5537   -0.2734    3.7355 C   0  0  0  0  0  0  0  0  0  0  0  0
   -2.4838    1.2481    3.8735 C   0  0  0  0  0  0  0  0  0  0  0  0
   -3.8128   -0.8274    4.4087 C   0  0  0  0  0  0  0  0  0  0  0  0
   -1.3488   -0.9502    4.4147 C   0  0  0  0  0  0  0  0  0  0  0  0
   -0.8282   -1.9930    4.0411 O   0  0  0  0  0  0  0  0  0  0  0  0
   -0.8785   -0.3274    5.5100 O   0  0  0  0  0  0  0  0  0  0  0  0
   -2.6908   -2.3586   -0.0701 C   0  0  0  0  0  0  0  0  0  0  0  0
   -2.1977   -2.9601   -1.3669 C   0  0  0  0  0  0  0  0  0  0  0  0
   -0.9654   -2.2713   -1.9985 C   0  0  0  0  0  0  0  0  0  0  0  0
   -1.1956   -2.4617   -3.5747 C   0  0  0  0  0  0  0  0  0  0  0  0
    0.4696   -3.0021   -1.6665 C   0  0  0  0  0  0  0  0  0  0  0  0
    0.3138   -4.5508   -1.9269 C   0  0  0  0  0  0  0  0  0  0  0  0
    1.5178   -2.3754   -2.6369 C   0  0  0  0  0  0  0  0  0  0  0  0
    2.6349   -2.6618   -1.6883 C   0  0  0  0  0  0  0  0  0  0  0  0
    1.7367   -3.1262   -0.5506 C   0  0  0  0  0  0  0  0  0  0  0  0
    2.2584   -2.0064    0.4201 C   0  0  0  0  0  0  0  0  0  0  0  0
    0.8643   -1.5208    0.8584 C   0  0  0  0  0  0  0  0  0  0  0  0
    3.0976   -2.0600    1.8299 C   0  0  0  0  0  0  0  0  0  0  0  0
    2.3532   -2.9588    2.8453 C   0  0  0  0  0  0  0  0  0  0  0  0
    4.4707   -2.7255    1.6531 C   0  0  0  0  0  0  0  0  0  0  0  0
    3.3147   -0.5344    2.5328 C   0  0  0  0  0  0  0  0  0  0  0  0
    3.0942    0.6291    1.5543 C   0  0  0  0  0  0  0  0  0  0  0  0
    3.7288    1.9963    1.3547 C   0  0  0  0  0  0  0  0  0  0  0  0
    3.3643    2.4300   -0.1557 C   0  0  0  0  0  0  0  0  0  0  0  0
    4.0799    3.6106   -0.5159 O   0  0  0  0  0  0  0  0  0  0  0  0
    3.3133    4.4421   -1.3835 C   0  0  0  0  0  0  0  0  0  0  0  0
    4.1519    5.3775   -2.0449 O   0  0  0  0  0  0  0  0  0  0  0  0
    3.3987    6.2063   -2.9196 C   0  0  0  0  0  0  0  0  0  0  0  0
    3.5702    1.2814   -1.2730 C   0  0  0  0  0  0  0  0  0  0  0  0
    2.9685    0.0309   -0.6872 C   0  0  0  0  0  0  0  0  0  0  0  0
    3.7349    0.0370    0.4820 O   0  0  0  0  0  0  0  0  0  0  0  0
    3.1942   -1.4422   -0.9382 C   0  0  0  0  0  0  0  0  0  0  0  0
    4.7027   -1.6642   -1.2624 C   0  0  0  0  0  0  0  0  0  0  0  0
   -1.0425   -0.7121   -1.8247 C   0  0  0  0  0  0  0  0  0  0  0  0
   -1.8341   -0.0141   -0.6600 C   0  0  0  0  0  0  0  0  0  0  0  0
   -2.1760    1.5369   -1.0132 C   0  0  0  0  0  0  0  0  0  0  0  0
   -2.1011    1.8883   -2.5239 C   0  0  0  0  0  0  0  0  0  0  0  0
   -1.0849    2.4002   -0.3279 C   0  0  0  0  0  0  0  0  0  0  0  0
   -4.7936    3.3559   -2.5750 H   0  0  0  0  0  0  0  0  0  0  0  0
   -4.9396    4.9604   -1.6928 H   0  0  0  0  0  0  0  0  0  0  0  0
   -2.8050    4.2613    0.9557 H   0  0  0  0  0  0  0  0  0  0  0  0
   -4.2030    5.2479    0.5274 H   0  0  0  0  0  0  0  0  0  0  0  0
   -4.4279    3.7809    1.4912 H   0  0  0  0  0  0  0  0  0  0  0  0
   -3.5559    1.7630    0.6032 H   0  0  0  0  0  0  0  0  0  0  0  0
   -4.9483    1.1912   -2.0587 H   0  0  0  0  0  0  0  0  0  0  0  0
   -5.5899    1.0585   -0.4436 H   0  0  0  0  0  0  0  0  0  0  0  0
   -4.0302   -0.8412   -2.0514 H   0  0  0  0  0  0  0  0  0  0  0  0
   -5.1167   -1.1577   -0.7209 H   0  0  0  0  0  0  0  0  0  0  0  0
   -1.5816   -1.1220    2.0488 H   0  0  0  0  0  0  0  0  0  0  0  0
   -3.3047    1.7377    3.3401 H   0  0  0  0  0  0  0  0  0  0  0  0
   -2.5347    1.5637    4.9207 H   0  0  0  0  0  0  0  0  0  0  0  0
   -1.5462    1.6331    3.4537 H   0  0  0  0  0  0  0  0  0  0  0  0
   -3.7609   -0.7227    5.4997 H   0  0  0  0  0  0  0  0  0  0  0  0
   -3.9514   -1.8928    4.1902 H   0  0  0  0  0  0  0  0  0  0  0  0
   -4.7186   -0.3000    4.0898 H   0  0  0  0  0  0  0  0  0  0  0  0
   -0.1442   -0.9050    5.8123 H   0  0  0  0  0  0  0  0  0  0  0  0
   -1.9397   -2.5775    0.6942 H   0  0  0  0  0  0  0  0  0  0  0  0
   -3.5877   -2.9127    0.2468 H   0  0  0  0  0  0  0  0  0  0  0  0
   -3.0426   -2.9142   -2.0657 H   0  0  0  0  0  0  0  0  0  0  0  0
   -2.0333   -4.0296   -1.2131 H   0  0  0  0  0  0  0  0  0  0  0  0
   -0.4338   -1.9460   -4.1697 H   0  0  0  0  0  0  0  0  0  0  0  0
   -1.2129   -3.5040   -3.8975 H   0  0  0  0  0  0  0  0  0  0  0  0
   -2.1623   -2.0421   -3.8848 H   0  0  0  0  0  0  0  0  0  0  0  0
   -0.3201   -4.8019   -2.7750 H   0  0  0  0  0  0  0  0  0  0  0  0
   -0.1092   -5.0377   -1.0396 H   0  0  0  0  0  0  0  0  0  0  0  0
    1.2788   -5.0315   -2.1324 H   0  0  0  0  0  0  0  0  0  0  0  0
    1.6226   -2.9055   -3.5915 H   0  0  0  0  0  0  0  0  0  0  0  0
    1.4295   -1.3129   -2.8788 H   0  0  0  0  0  0  0  0  0  0  0  0
    3.3171   -3.4462   -2.0387 H   0  0  0  0  0  0  0  0  0  0  0  0
    1.9607   -4.1314   -0.1731 H   0  0  0  0  0  0  0  0  0  0  0  0
    0.8518   -0.8167    1.6911 H   0  0  0  0  0  0  0  0  0  0  0  0
    0.3940   -1.0272    0.0374 H   0  0  0  0  0  0  0  0  0  0  0  0
    0.2304   -2.3560    1.1777 H   0  0  0  0  0  0  0  0  0  0  0  0
    2.9445   -3.1129    3.7545 H   0  0  0  0  0  0  0  0  0  0  0  0
    2.1353   -3.9409    2.4126 H   0  0  0  0  0  0  0  0  0  0  0  0
    1.4098   -2.5200    3.1675 H   0  0  0  0  0  0  0  0  0  0  0  0
    4.4017   -3.6402    1.0565 H   0  0  0  0  0  0  0  0  0  0  0  0
    4.9006   -2.9994    2.6232 H   0  0  0  0  0  0  0  0  0  0  0  0
    5.2046   -2.0633    1.1945 H   0  0  0  0  0  0  0  0  0  0  0  0
    4.3369   -0.4925    2.9319 H   0  0  0  0  0  0  0  0  0  0  0  0
    2.6437   -0.4210    3.3922 H   0  0  0  0  0  0  0  0  0  0  0  0
    2.0175    0.7718    1.4297 H   0  0  0  0  0  0  0  0  0  0  0  0
    4.8220    1.9621    1.4518 H   0  0  0  0  0  0  0  0  0  0  0  0
    3.3590    2.7389    2.0685 H   0  0  0  0  0  0  0  0  0  0  0  0
    2.2867    2.6594   -0.1251 H   0  0  0  0  0  0  0  0  0  0  0  0
    2.5718    4.9762   -0.7782 H   0  0  0  0  0  0  0  0  0  0  0  0
    2.7953    3.8369   -2.1375 H   0  0  0  0  0  0  0  0  0  0  0  0
    2.8635    5.5972   -3.6574 H   0  0  0  0  0  0  0  0  0  0  0  0
    2.6887    6.8129   -2.3465 H   0  0  0  0  0  0  0  0  0  0  0  0
    4.0883    6.8704   -3.4464 H   0  0  0  0  0  0  0  0  0  0  0  0
    4.6442    1.1893   -1.4735 H   0  0  0  0  0  0  0  0  0  0  0  0
    3.0937    1.5576   -2.2173 H   0  0  0  0  0  0  0  0  0  0  0  0
    1.9024    0.2427   -0.5552 H   0  0  0  0  0  0  0  0  0  0  0  0
    5.0426   -2.6785   -1.0269 H   0  0  0  0  0  0  0  0  0  0  0  0
    5.3804   -0.9785   -0.7429 H   0  0  0  0  0  0  0  0  0  0  0  0
    4.8689   -1.4995   -2.3344 H   0  0  0  0  0  0  0  0  0  0  0  0
   -0.0506   -0.2548   -1.8795 H   0  0  0  0  0  0  0  0  0  0  0  0
   -1.5410   -0.3698   -2.7350 H   0  0  0  0  0  0  0  0  0  0  0  0
   -1.1547    0.0581    0.1885 H   0  0  0  0  0  0  0  0  0  0  0  0
   -1.1059    1.7001   -2.9401 H   0  0  0  0  0  0  0  0  0  0  0  0
   -2.2814    2.9526   -2.7087 H   0  0  0  0  0  0  0  0  0  0  0  0
   -2.8348    1.3273   -3.1122 H   0  0  0  0  0  0  0  0  0  0  0  0
   -0.0862    2.0986   -0.6629 H   0  0  0  0  0  0  0  0  0  0  0  0
   -1.1178    2.2907    0.7623 H   0  0  0  0  0  0  0  0  0  0  0  0
   -1.1922    3.4635   -0.5646 H   0  0  0  0  0  0  0  0  0  0  0  0
  2  1  2  0  0  0  0
  3  2  1  0  0  0  0
  4  2  1  0  0  0  0
  5  4  1  0  0  0  0
  6  5  1  0  0  0  0
  7  6  1  0  0  0  0
  8  7  1  0  0  0  0
  9  8  2  0  0  0  0
 10  8  1  0  0  0  0
 11 10  1  0  0  0  0
 12 11  1  0  0  0  0
 13 11  1  0  0  0  0
 14 11  1  0  0  0  0
 15 14  2  0  0  0  0
 16 14  1  0  0  0  0
 17  7  1  0  0  0  0
 18 17  1  0  0  0  0
 19 18  1  0  0  0  0
 20 19  1  0  0  0  0
 21 19  1  0  0  0  0
 22 21  1  0  0  0  0
 23 21  1  0  0  0  0
 24 23  1  0  0  0  0
 25 24  1  0  0  0  0
 25 21  1  0  0  0  0
 26 25  1  0  0  0  0
 27 26  1  0  0  0  0
 28 26  1  0  0  0  0
 29 28  1  0  0  0  0
 30 28  1  0  0  0  0
 31 28  1  0  0  0  0
 32 31  1  0  0  0  0
 33 32  1  0  0  0  0
 34 33  1  0  0  0  0
 35 34  1  0  0  0  0
 36 35  1  0  0  0  0
 37 36  1  0  0  0  0
 38 37  1  0  0  0  0
 39 34  1  0  0  0  0
 40 39  1  0  0  0  0
 41 40  1  0  0  0  0
 41 32  1  0  0  0  0
 42 40  1  0  0  0  0
 42 24  1  0  0  0  0
 42 26  1  0  0  0  0
 43 42  1  0  0  0  0
 44 19  1  0  0  0  0
 45 44  1  0  0  0  0
 45  7  1  0  0  0  0
 46 45  1  0  0  0  0
 46  4  1  0  0  0  0
 47 46  1  0  0  0  0
 48 46  1  0  0  0  0
  1 49  1  0  0  0  0
  1 50  1  0  0  0  0
  3 51  1  0  0  0  0
  3 52  1  0  0  0  0
  3 53  1  0  0  0  0
  4 54  1  0  0  0  0
  5 55  1  0  0  0  0
  5 56  1  0  0  0  0
  6 57  1  0  0  0  0
  6 58  1  0  0  0  0
 10 59  1  0  0  0  0
 12 60  1  0  0  0  0
 12 61  1  0  0  0  0
 12 62  1  0  0  0  0
 13 63  1  0  0  0  0
 13 64  1  0  0  0  0
 13 65  1  0  0  0  0
 16 66  1  0  0  0  0
 17 67  1  0  0  0  0
 17 68  1  0  0  0  0
 18 69  1  0  0  0  0
 18 70  1  0  0  0  0
 20 71  1  0  0  0  0
 20 72  1  0  0  0  0
 20 73  1  0  0  0  0
 22 74  1  0  0  0  0
 22 75  1  0  0  0  0
 22 76  1  0  0  0  0
 23 77  1  0  0  0  0
 23 78  1  0  0  0  0
 24 79  1  0  0  0  0
 25 80  1  0  0  0  0
 27 81  1  0  0  0  0
 27 82  1  0  0  0  0
 27 83  1  0  0  0  0
 29 84  1  0  0  0  0
 29 85  1  0  0  0  0
 29 86  1  0  0  0  0
 30 87  1  0  0  0  0
 30 88  1  0  0  0  0
 30 89  1  0  0  0  0
 31 90  1  0  0  0  0
 31 91  1  0  0  0  0
 32 92  1  0  0  0  0
 33 93  1  0  0  0  0
 33 94  1  0  0  0  0
 34 95  1  0  0  0  0
 36 96  1  0  0  0  0
 36 97  1  0  0  0  0
 38 98  1  0  0  0  0
 38 99  1  0  0  0  0
 38100  1  0  0  0  0
 39101  1  0  0  0  0
 39102  1  0  0  0  0
 40103  1  0  0  0  0
 43104  1  0  0  0  0
 43105  1  0  0  0  0
 43106  1  0  0  0  0
 44107  1  0  0  0  0
 44108  1  0  0  0  0
 45109  1  0  0  0  0
 47110  1  0  0  0  0
 47111  1  0  0  0  0
 47112  1  0  0  0  0
 48113  1  0  0  0  0
 48114  1  0  0  0  0
 48115  1  0  0  0  0
M  END
>  <energy>
331.70261429911972

$$$$
