Cc1nnsc1C(=O)NC1OC2C1C1CC34CC(C3)C12C4
                    3D

 38 43  0  0  0  0  0  0  0  0999 V2000
   -4.1516    1.0796    1.2341 C   0  0  0  0  0  0  0  0  0  0  0  0
   -4.2893    1.0474   -0.2447 C   0  0  0  0  0  0  0  0  0  0  0  0
   -4.9719    2.0916   -0.8594 N   0  0  0  0  0  0  0  0  0  0  0  0
   -5.0783    1.9116   -2.1664 N   0  0  0  0  0  0  0  0  0  0  0  0
   -4.3866    0.4803   -2.6850 S   0  0  0  0  0  0  0  0  0  0  0  0
   -3.8334    0.0710   -1.1163 C   0  0  0  0  0  0  0  0  0  0  0  0
   -3.0295   -1.1063   -0.9229 C   0  0  0  0  0  0  0  0  0  0  0  0
   -3.2605   -2.1873   -1.4543 O   0  0  0  0  0  0  0  0  0  0  0  0
   -1.9358   -0.9022   -0.1020 N   0  0  0  0  0  0  0  0  0  0  0  0
   -0.8244   -1.8557   -0.0823 C   0  0  0  0  0  0  0  0  0  0  0  0
    0.0416   -1.7958   -1.2506 O   0  0  0  0  0  0  0  0  0  0  0  0
    1.2041   -1.9135   -0.3987 C   0  0  0  0  0  0  0  0  0  0  0  0
    0.3561   -1.4763    0.8350 C   0  0  0  0  0  0  0  0  0  0  0  0
    0.9286   -0.0306    0.6267 C   0  0  0  0  0  0  0  0  0  0  0  0
    1.7556    0.9272    1.5295 C   0  0  0  0  0  0  0  0  0  0  0  0
    3.1695    0.8011    0.7895 C   0  0  0  0  0  0  0  0  0  0  0  0
    2.4824    1.6643   -0.5499 C   0  0  0  0  0  0  0  0  0  0  0  0
    2.6762    0.2429   -1.1783 C   0  0  0  0  0  0  0  0  0  0  0  0
    4.1099    0.5340   -0.6075 C   0  0  0  0  0  0  0  0  0  0  0  0
    2.0923   -0.7346   -0.1121 C   0  0  0  0  0  0  0  0  0  0  0  0
    3.1641   -0.7604    0.9389 C   0  0  0  0  0  0  0  0  0  0  0  0
   -4.7796    1.8639    1.6673 H   0  0  0  0  0  0  0  0  0  0  0  0
   -4.4599    0.1239    1.6710 H   0  0  0  0  0  0  0  0  0  0  0  0
   -3.1152    1.2790    1.5231 H   0  0  0  0  0  0  0  0  0  0  0  0
   -1.7490    0.0594    0.1406 H   0  0  0  0  0  0  0  0  0  0  0  0
   -1.1799   -2.8821    0.0850 H   0  0  0  0  0  0  0  0  0  0  0  0
    1.6346   -2.9186   -0.3918 H   0  0  0  0  0  0  0  0  0  0  0  0
    0.5275   -2.0097    1.7687 H   0  0  0  0  0  0  0  0  0  0  0  0
    0.2534    0.5553   -0.0114 H   0  0  0  0  0  0  0  0  0  0  0  0
    1.8060    0.5760    2.5681 H   0  0  0  0  0  0  0  0  0  0  0  0
    1.3630    1.9498    1.5523 H   0  0  0  0  0  0  0  0  0  0  0  0
    1.4582    2.0522   -0.5566 H   0  0  0  0  0  0  0  0  0  0  0  0
    3.0589    2.5175   -0.9415 H   0  0  0  0  0  0  0  0  0  0  0  0
    2.5245    0.0940   -2.2445 H   0  0  0  0  0  0  0  0  0  0  0  0
    4.6813    1.3920   -0.9975 H   0  0  0  0  0  0  0  0  0  0  0  0
    4.8333   -0.2881   -0.6772 H   0  0  0  0  0  0  0  0  0  0  0  0
    4.0641   -1.3298    0.6925 H   0  0  0  0  0  0  0  0  0  0  0  0
    2.8599   -1.1230    1.9285 H   0  0  0  0  0  0  0  0  0  0  0  0
  2  1  1  0  0  0  0
  3  2  1  0  0  0  0
  4  3  2  0  0  0  0
  5  4  1  0  0  0  0
  6  5  1  0  0  0  0
  6  2  2  0  0  0  0
  7  6  1  0  0  0  0
  8  7  2  0  0  0  0
  9  7  1  0  0  0  0
 10  9  1  0  0  0  0
 11 10  1  0  0  0  0
 12 11  1  0  0  0  0
 13 12  1  0  0  0  0
 13 10  1  0  0  0  0
 14 13  1  0  0  0  0
 15 14  1  0  0  0  0
 16 15  1  0  0  0  0
 17 16  1  0  0  0  0
 18 17  1  0  0  0  0
 19 18  1  0  0  0  0
 19 16  1  0  0  0  0
 20 18  1  0  0  0  0
 20 14  1  0  0  0  0
 20 12  1  0  0  0  0
 21 20  1  0  0  0  0
 21 16  1  0  0  0  0
  1 22  1  0  0  0  0
  1 23  1  0  0  0  0
  1 24  1  0  0  0  0
  9 25  1  0  0  0  0
 10 26  1  0  0  0  0
 12 27  1  0  0  0  0
 13 28  1  0  0  0  0
 14 29  1  0  0  0  0
 15 30  1  0  0  0  0
 15 31  1  0  0  0  0
 17 32  1  0  0  0  0
 17 33  1  0  0  0  0
 18 34  1  0  0  0  0
 19 35  1  0  0  0  0
 19 36  1  0  0  0  0
 21 37  1  0  0  0  0
 21 38  1  0  0  0  0
M  END
>  <energy>
109.38184247503776

$$$$
