CCC(C)OC(=O)N1CC23C(OC)CC4C2CC(=O)C4(O)C13
                    3D

 45 48  0  0  0  0  0  0  0  0999 V2000
   -4.9111   -0.8769    1.6078 C   0  0  0  0  0  0  0  0  0  0  0  0
   -4.5693   -0.4719    0.1863 C   0  0  0  0  0  0  0  0  0  0  0  0
   -3.6322    0.7414    0.1067 C   0  0  0  0  0  0  0  0  0  0  0  0
   -3.3356    1.1365   -1.3435 C   0  0  0  0  0  0  0  0  0  0  0  0
   -2.3631    0.6476    0.8078 O   0  0  0  0  0  0  0  0  0  0  0  0
   -1.5404   -0.3977    0.5484 C   0  0  0  0  0  0  0  0  0  0  0  0
   -1.8950   -1.5373    0.2810 O   0  0  0  0  0  0  0  0  0  0  0  0
   -0.2179   -0.0017    0.4548 N   0  0  0  0  0  0  0  0  0  0  0  0
    0.2042    1.3340   -0.1345 C   0  0  0  0  0  0  0  0  0  0  0  0
    1.5588    0.5820   -0.3626 C   0  0  0  0  0  0  0  0  0  0  0  0
    2.3427    0.7237    0.9936 C   0  0  0  0  0  0  0  0  0  0  0  0
    3.0594    1.9544    0.8927 O   0  0  0  0  0  0  0  0  0  0  0  0
    3.5161    2.4501    2.1427 C   0  0  0  0  0  0  0  0  0  0  0  0
    3.2775   -0.4750    0.9914 C   0  0  0  0  0  0  0  0  0  0  0  0
    3.0198   -1.1006   -0.3670 C   0  0  0  0  0  0  0  0  0  0  0  0
    2.6720    0.0694   -1.3269 C   0  0  0  0  0  0  0  0  0  0  0  0
    2.2945   -0.6792   -2.6313 C   0  0  0  0  0  0  0  0  0  0  0  0
    1.7880   -1.9910   -2.0466 C   0  0  0  0  0  0  0  0  0  0  0  0
    1.5248   -3.0013   -2.6850 O   0  0  0  0  0  0  0  0  0  0  0  0
    1.6204   -1.7710   -0.5301 C   0  0  0  0  0  0  0  0  0  0  0  0
    1.3133   -2.7597    0.3872 O   0  0  0  0  0  0  0  0  0  0  0  0
    0.6061   -0.6324   -0.5479 C   0  0  0  0  0  0  0  0  0  0  0  0
   -4.0112   -1.0215    2.2093 H   0  0  0  0  0  0  0  0  0  0  0  0
   -5.5341   -0.1210    2.0926 H   0  0  0  0  0  0  0  0  0  0  0  0
   -5.4723   -1.8164    1.6053 H   0  0  0  0  0  0  0  0  0  0  0  0
   -4.1361   -1.3356   -0.3237 H   0  0  0  0  0  0  0  0  0  0  0  0
   -5.4975   -0.2455   -0.3520 H   0  0  0  0  0  0  0  0  0  0  0  0
   -4.1442    1.5888    0.5800 H   0  0  0  0  0  0  0  0  0  0  0  0
   -2.7655    0.3591   -1.8654 H   0  0  0  0  0  0  0  0  0  0  0  0
   -4.2561    1.3239   -1.8987 H   0  0  0  0  0  0  0  0  0  0  0  0
   -2.7296    2.0508   -1.3710 H   0  0  0  0  0  0  0  0  0  0  0  0
    0.1783    2.1348    0.6126 H   0  0  0  0  0  0  0  0  0  0  0  0
   -0.3569    1.6296   -1.0288 H   0  0  0  0  0  0  0  0  0  0  0  0
    1.7063    0.7242    1.8827 H   0  0  0  0  0  0  0  0  0  0  0  0
    4.2326    1.7572    2.5930 H   0  0  0  0  0  0  0  0  0  0  0  0
    2.6748    2.6220    2.8210 H   0  0  0  0  0  0  0  0  0  0  0  0
    4.0095    3.4081    1.9476 H   0  0  0  0  0  0  0  0  0  0  0  0
    3.0453   -1.1821    1.7923 H   0  0  0  0  0  0  0  0  0  0  0  0
    4.3216   -0.1627    1.0906 H   0  0  0  0  0  0  0  0  0  0  0  0
    3.8586   -1.7373   -0.6839 H   0  0  0  0  0  0  0  0  0  0  0  0
    3.4794    0.7904   -1.4707 H   0  0  0  0  0  0  0  0  0  0  0  0
    3.1775   -0.8870   -3.2435 H   0  0  0  0  0  0  0  0  0  0  0  0
    1.5181   -0.1708   -3.2041 H   0  0  0  0  0  0  0  0  0  0  0  0
    0.3692   -2.9820    0.2641 H   0  0  0  0  0  0  0  0  0  0  0  0
   -0.0005   -0.6705   -1.4740 H   0  0  0  0  0  0  0  0  0  0  0  0
  2  1  1  0  0  0  0
  3  2  1  0  0  0  0
  4  3  1  0  0  0  0
  5  3  1  0  0  0  0
  6  5  1  0  0  0  0
  7  6  2  0  0  0  0
  8  6  1  0  0  0  0
  9  8  1  0  0  0  0
 10  9  1  0  0  0  0
 11 10  1  0  0  0  0
 12 11  1  0  0  0  0
 13 12  1  0  0  0  0
 14 11  1  0  0  0  0
 15 14  1  0  0  0  0
 16 15  1  0  0  0  0
 16 10  1  0  0  0  0
 17 16  1  0  0  0  0
 18 17  1  0  0  0  0
 19 18  2  0  0  0  0
 20 18  1  0  0  0  0
 20 15  1  0  0  0  0
 21 20  1  0  0  0  0
 22 20  1  0  0  0  0
 22  8  1  0  0  0  0
 22 10  1  0  0  0  0
  1 23  1  0  0  0  0
  1 24  1  0  0  0  0
  1 25  1  0  0  0  0
  2 26  1  0  0  0  0
  2 27  1  0  0  0  0
  3 28  1  0  0  0  0
  4 29  1  0  0  0  0
  4 30  1  0  0  0  0
  4 31  1  0  0  0  0
  9 32  1  0  0  0  0
  9 33  1  0  0  0  0
 11 34  1  0  0  0  0
 13 35  1  0  0  0  0
 13 36  1  0  0  0  0
 13 37  1  0  0  0  0
 14 38  1  0  0  0  0
 14 39  1  0  0  0  0
 15 40  1  0  0  0  0
 16 41  1  0  0  0  0
 17 42  1  0  0  0  0
 17 43  1  0  0  0  0
 21 44  1  0  0  0  0
 22 45  1  0  0  0  0
M  END
>  <energy>
99.159136379095713

$$$$
