N#CC(C(O)O)C12CCC3(Oc4c3cc3ccoc3c4O1)OC(C(O)C(O)C(O)C(O)CO)C2CO
                    3D

 63 67  0  0  0  0  0  0  0  0999 V2000
    2.9817   -4.5955   -0.9507 N   0  0  0  0  0  0  0  0  0  0  0  0
    2.1743   -4.0418   -0.3269 C   0  0  0  0  0  0  0  0  0  0  0  0
    1.0852   -3.3497    0.3998 C   0  0  0  0  0  0  0  0  0  0  0  0
   -0.2485   -3.9813   -0.1113 C   0  0  0  0  0  0  0  0  0  0  0  0
   -0.3883   -4.1337   -1.5111 O   0  0  0  0  0  0  0  0  0  0  0  0
   -1.3911   -3.2629    0.2929 O   0  0  0  0  0  0  0  0  0  0  0  0
    1.2932   -1.7485    0.3809 C   0  0  0  0  0  0  0  0  0  0  0  0
    0.8642   -1.2564   -1.0055 C   0  0  0  0  0  0  0  0  0  0  0  0
    0.9955    0.2181   -1.2858 C   0  0  0  0  0  0  0  0  0  0  0  0
    1.3326    1.1348   -0.0925 C   0  0  0  0  0  0  0  0  0  0  0  0
    2.0074    0.7212    1.1252 O   0  0  0  0  0  0  0  0  0  0  0  0
    3.1436    0.6720    0.4609 C   0  0  0  0  0  0  0  0  0  0  0  0
    2.7919    1.7561   -0.3366 C   0  0  0  0  0  0  0  0  0  0  0  0
    3.6275    1.8208   -1.4601 C   0  0  0  0  0  0  0  0  0  0  0  0
    4.3891    0.6640   -1.8491 C   0  0  0  0  0  0  0  0  0  0  0  0
    5.2536    0.3373   -2.9262 C   0  0  0  0  0  0  0  0  0  0  0  0
    5.5392   -1.0060   -2.8093 C   0  0  0  0  0  0  0  0  0  0  0  0
    4.9083   -1.5462   -1.7343 O   0  0  0  0  0  0  0  0  0  0  0  0
    4.2669   -0.5295   -1.1012 C   0  0  0  0  0  0  0  0  0  0  0  0
    3.5267   -0.5857    0.0667 C   0  0  0  0  0  0  0  0  0  0  0  0
    2.7940   -1.6502    0.6143 O   0  0  0  0  0  0  0  0  0  0  0  0
    0.0694    1.4942    0.4499 O   0  0  0  0  0  0  0  0  0  0  0  0
   -0.3431    0.5150    1.4825 C   0  0  0  0  0  0  0  0  0  0  0  0
   -1.8930    0.4569    1.5886 C   0  0  0  0  0  0  0  0  0  0  0  0
   -2.2436    0.0981    2.9367 O   0  0  0  0  0  0  0  0  0  0  0  0
   -2.5906    1.7818    1.2055 C   0  0  0  0  0  0  0  0  0  0  0  0
   -3.7360    1.9710    2.0654 O   0  0  0  0  0  0  0  0  0  0  0  0
   -3.1146    1.6963   -0.2408 C   0  0  0  0  0  0  0  0  0  0  0  0
   -4.3163    0.8886   -0.2496 O   0  0  0  0  0  0  0  0  0  0  0  0
   -3.4443    3.0451   -0.8978 C   0  0  0  0  0  0  0  0  0  0  0  0
   -4.0895    2.7809   -2.1659 O   0  0  0  0  0  0  0  0  0  0  0  0
   -4.3799    3.9541   -0.0987 C   0  0  0  0  0  0  0  0  0  0  0  0
   -4.7111    5.0940   -0.8938 O   0  0  0  0  0  0  0  0  0  0  0  0
    0.3015   -1.0516    1.5316 C   0  0  0  0  0  0  0  0  0  0  0  0
    0.7548   -1.3720    2.9803 C   0  0  0  0  0  0  0  0  0  0  0  0
    1.8344   -0.5766    3.4334 O   0  0  0  0  0  0  0  0  0  0  0  0
    1.1828   -3.6538    1.4472 H   0  0  0  0  0  0  0  0  0  0  0  0
   -0.3311   -4.9890    0.3165 H   0  0  0  0  0  0  0  0  0  0  0  0
    0.2498   -3.5815   -1.9904 H   0  0  0  0  0  0  0  0  0  0  0  0
   -2.1391   -3.7998   -0.0281 H   0  0  0  0  0  0  0  0  0  0  0  0
    1.4308   -1.7838   -1.7819 H   0  0  0  0  0  0  0  0  0  0  0  0
   -0.1887   -1.5099   -1.1751 H   0  0  0  0  0  0  0  0  0  0  0  0
    1.6771    0.3447   -2.1346 H   0  0  0  0  0  0  0  0  0  0  0  0
    0.0469    0.5643   -1.7284 H   0  0  0  0  0  0  0  0  0  0  0  0
    3.6589    2.7231   -2.0672 H   0  0  0  0  0  0  0  0  0  0  0  0
    5.5978    0.9920   -3.7143 H   0  0  0  0  0  0  0  0  0  0  0  0
    6.1345   -1.6984   -3.3913 H   0  0  0  0  0  0  0  0  0  0  0  0
   -0.0135    0.9901    2.4183 H   0  0  0  0  0  0  0  0  0  0  0  0
   -2.2655   -0.3521    0.9507 H   0  0  0  0  0  0  0  0  0  0  0  0
   -3.2126   -0.0206    2.9398 H   0  0  0  0  0  0  0  0  0  0  0  0
   -1.9291    2.6425    1.3402 H   0  0  0  0  0  0  0  0  0  0  0  0
   -3.3644    2.1056    2.9618 H   0  0  0  0  0  0  0  0  0  0  0  0
   -2.3964    1.1809   -0.8880 H   0  0  0  0  0  0  0  0  0  0  0  0
   -4.7580    1.0850    0.6058 H   0  0  0  0  0  0  0  0  0  0  0  0
   -2.5194    3.5864   -1.1265 H   0  0  0  0  0  0  0  0  0  0  0  0
   -4.6607    2.0001   -2.0023 H   0  0  0  0  0  0  0  0  0  0  0  0
   -3.9119    4.3141    0.8215 H   0  0  0  0  0  0  0  0  0  0  0  0
   -5.3199    3.4489    0.1426 H   0  0  0  0  0  0  0  0  0  0  0  0
   -4.8381    4.7478   -1.8013 H   0  0  0  0  0  0  0  0  0  0  0  0
   -0.6086   -1.6404    1.4513 H   0  0  0  0  0  0  0  0  0  0  0  0
   -0.0766   -1.2117    3.6748 H   0  0  0  0  0  0  0  0  0  0  0  0
    1.0441   -2.4192    3.0938 H   0  0  0  0  0  0  0  0  0  0  0  0
    2.4655   -0.4780    2.6976 H   0  0  0  0  0  0  0  0  0  0  0  0
  2  1  3  0  0  0  0
  3  2  1  0  0  0  0
  4  3  1  0  0  0  0
  5  4  1  0  0  0  0
  6  4  1  0  0  0  0
  7  3  1  0  0  0  0
  8  7  1  0  0  0  0
  9  8  1  0  0  0  0
 10  9  1  0  0  0  0
 11 10  1  0  0  0  0
 12 11  1  0  0  0  0
 13 12  2  0  0  0  0
 13 10  1  0  0  0  0
 14 13  1  0  0  0  0
 15 14  2  0  0  0  0
 16 15  1  0  0  0  0
 17 16  2  0  0  0  0
 18 17  1  0  0  0  0
 19 18  1  0  0  0  0
 19 15  1  0  0  0  0
 20 19  2  0  0  0  0
 20 12  1  0  0  0  0
 21 20  1  0  0  0  0
 21  7  1  0  0  0  0
 22 10  1  0  0  0  0
 23 22  1  0  0  0  0
 24 23  1  0  0  0  0
 25 24  1  0  0  0  0
 26 24  1  0  0  0  0
 27 26  1  0  0  0  0
 28 26  1  0  0  0  0
 29 28  1  0  0  0  0
 30 28  1  0  0  0  0
 31 30  1  0  0  0  0
 32 30  1  0  0  0  0
 33 32  1  0  0  0  0
 34 23  1  0  0  0  0
 34  7  1  0  0  0  0
 35 34  1  0  0  0  0
 36 35  1  0  0  0  0
  3 37  1  0  0  0  0
  4 38  1  0  0  0  0
  5 39  1  0  0  0  0
  6 40  1  0  0  0  0
  8 41  1  0  0  0  0
  8 42  1  0  0  0  0
  9 43  1  0  0  0  0
  9 44  1  0  0  0  0
 14 45  1  0  0  0  0
 16 46  1  0  0  0  0
 17 47  1  0  0  0  0
 23 48  1  0  0  0  0
 24 49  1  0  0  0  0
 25 50  1  0  0  0  0
 26 51  1  0  0  0  0
 27 52  1  0  0  0  0
 28 53  1  0  0  0  0
 29 54  1  0  0  0  0
 30 55  1  0  0  0  0
 31 56  1  0  0  0  0
 32 57  1  0  0  0  0
 32 58  1  0  0  0  0
 33 59  1  0  0  0  0
 34 60  1  0  0  0  0
 35 61  1  0  0  0  0
 35 62  1  0  0  0  0
 36 63  1  0  0  0  0
M  END
>  <energy>
309.74228044425325

$$$$
