COC12C(O)C(C)(C(O)N=CC3OC(O)(COC(=O)C(=O)OC(C)C)CC(O)(COC(C)=O)C3[N+](=O)[O-])NO
                    3D

 85 88  0  0  0  0  0  0  0  0999 V2000
    5.5156    0.3465   -3.0580 C   0  0  0  0  0  0  0  0  0  0  0  0
    4.8896    1.1293   -2.0259 O   0  0  0  0  0  0  0  0  0  0  0  0
    3.7557    0.4832   -1.3025 C   0  0  0  0  0  0  0  0  0  0  0  0
    4.4549   -0.4478   -0.2624 C   0  0  0  0  0  0  0  0  0  0  0  0
    5.6910    0.2167    0.1235 O   0  0  0  0  0  0  0  0  0  0  0  0
    3.6735   -0.7912    1.0508 C   0  0  0  0  0  0  0  0  0  0  0  0
    4.6824   -1.0766    2.2103 C   0  0  0  0  0  0  0  0  0  0  0  0
    2.7903   -2.1068    0.7949 C   0  0  0  0  0  0  0  0  0  0  0  0
    3.3149   -3.2388    1.4762 O   0  0  0  0  0  0  0  0  0  0  0  0
    1.3924   -1.8615    1.1113 N   0  0  0  0  0  0  0  0  0  0  0  0
    0.5789   -2.8296    0.8559 C   0  0  0  0  0  0  0  0  0  0  0  0
   -0.9098   -2.5337    0.9150 C   0  0  0  0  0  0  0  0  0  0  0  0
   -1.2027   -2.0661    2.2315 O   0  0  0  0  0  0  0  0  0  0  0  0
   -2.4196   -1.3358    2.2985 C   0  0  0  0  0  0  0  0  0  0  0  0
   -2.6495   -1.0597    3.6815 O   0  0  0  0  0  0  0  0  0  0  0  0
   -2.2624    0.0146    1.5432 C   0  0  0  0  0  0  0  0  0  0  0  0
   -3.3064    0.9693    1.7611 O   0  0  0  0  0  0  0  0  0  0  0  0
   -3.0301    1.8416    2.7586 C   0  0  0  0  0  0  0  0  0  0  0  0
   -2.1530    1.7437    3.6012 O   0  0  0  0  0  0  0  0  0  0  0  0
   -3.8894    3.1049    2.5971 C   0  0  0  0  0  0  0  0  0  0  0  0
   -4.9056    3.2496    3.2616 O   0  0  0  0  0  0  0  0  0  0  0  0
   -3.4537    4.0145    1.7001 O   0  0  0  0  0  0  0  0  0  0  0  0
   -2.2317    3.8931    0.9342 C   0  0  0  0  0  0  0  0  0  0  0  0
   -1.3632    5.1137    1.2134 C   0  0  0  0  0  0  0  0  0  0  0  0
   -2.6012    3.8356   -0.5420 C   0  0  0  0  0  0  0  0  0  0  0  0
   -3.5796   -2.2516    1.8680 C   0  0  0  0  0  0  0  0  0  0  0  0
   -3.3209   -3.2624    0.7014 C   0  0  0  0  0  0  0  0  0  0  0  0
   -4.0592   -4.4670    1.0306 O   0  0  0  0  0  0  0  0  0  0  0  0
   -3.9671   -2.7433   -0.6043 C   0  0  0  0  0  0  0  0  0  0  0  0
   -3.4371   -1.4837   -1.0016 O   0  0  0  0  0  0  0  0  0  0  0  0
   -4.0723   -0.9699   -2.0966 C   0  0  0  0  0  0  0  0  0  0  0  0
   -3.6239    0.4296   -2.3584 C   0  0  0  0  0  0  0  0  0  0  0  0
   -4.9538   -1.5405   -2.7283 O   0  0  0  0  0  0  0  0  0  0  0  0
   -1.8349   -3.6835    0.6030 C   0  0  0  0  0  0  0  0  0  0  0  0
   -1.5007   -4.2304   -0.7596 N   0  3  0  0  0  0  0  0  0  0  0  0
   -1.5000   -5.4552   -0.8971 O   0  0  0  0  0  0  0  0  0  0  0  0
   -1.1968   -3.4130   -1.6446 O   0  5  0  0  0  0  0  0  0  0  0  0
    2.9730    0.4275    1.5568 N   0  0  0  0  0  0  0  0  0  0  0  0
    2.0654    0.9354    0.5515 O   0  0  0  0  0  0  0  0  0  0  0  0
    2.7988    1.4823   -0.5772 C   0  0  0  0  0  0  0  0  0  0  0  0
    1.9525    1.5416   -1.8851 C   0  0  0  0  0  0  0  0  0  0  0  0
    1.9282    2.8056   -2.7200 C   0  0  0  0  0  0  0  0  0  0  0  0
    3.2424    3.3045   -2.9518 O   0  0  0  0  0  0  0  0  0  0  0  0
    0.6384    0.9078   -1.8409 O   0  0  0  0  0  0  0  0  0  0  0  0
    1.2560   -0.3894   -2.0276 C   0  0  0  0  0  0  0  0  0  0  0  0
    2.6035    0.2231   -2.3539 C   0  0  0  0  0  0  0  0  0  0  0  0
    6.5799    0.2520   -2.8240 H   0  0  0  0  0  0  0  0  0  0  0  0
    5.3921    0.8574   -4.0211 H   0  0  0  0  0  0  0  0  0  0  0  0
    5.0719   -0.6531   -3.1155 H   0  0  0  0  0  0  0  0  0  0  0  0
    4.7754   -1.3648   -0.7648 H   0  0  0  0  0  0  0  0  0  0  0  0
    5.9071    0.8407   -0.5984 H   0  0  0  0  0  0  0  0  0  0  0  0
    5.2612   -0.1856    2.4926 H   0  0  0  0  0  0  0  0  0  0  0  0
    5.4074   -1.8516    1.9308 H   0  0  0  0  0  0  0  0  0  0  0  0
    4.1674   -1.3983    3.1221 H   0  0  0  0  0  0  0  0  0  0  0  0
    2.8431   -2.3587   -0.2722 H   0  0  0  0  0  0  0  0  0  0  0  0
    3.0671   -3.0846    2.4061 H   0  0  0  0  0  0  0  0  0  0  0  0
    0.9138   -3.8266    0.5257 H   0  0  0  0  0  0  0  0  0  0  0  0
   -1.0297   -1.7266    0.1873 H   0  0  0  0  0  0  0  0  0  0  0  0
   -1.9952   -0.3887    3.9576 H   0  0  0  0  0  0  0  0  0  0  0  0
   -1.2859    0.4473    1.8057 H   0  0  0  0  0  0  0  0  0  0  0  0
   -2.2006   -0.1180    0.4626 H   0  0  0  0  0  0  0  0  0  0  0  0
   -1.6610    3.0003    1.1913 H   0  0  0  0  0  0  0  0  0  0  0  0
   -1.0893    5.1601    2.2706 H   0  0  0  0  0  0  0  0  0  0  0  0
   -1.8960    6.0415    0.9829 H   0  0  0  0  0  0  0  0  0  0  0  0
   -0.4462    5.0818    0.6186 H   0  0  0  0  0  0  0  0  0  0  0  0
   -3.2584    2.9879   -0.7363 H   0  0  0  0  0  0  0  0  0  0  0  0
   -1.7124    3.7394   -1.1715 H   0  0  0  0  0  0  0  0  0  0  0  0
   -3.1485    4.7339   -0.8477 H   0  0  0  0  0  0  0  0  0  0  0  0
   -4.4787   -1.6491    1.6752 H   0  0  0  0  0  0  0  0  0  0  0  0
   -3.8580   -2.8564    2.7443 H   0  0  0  0  0  0  0  0  0  0  0  0
   -4.9825   -4.2289    1.2376 H   0  0  0  0  0  0  0  0  0  0  0  0
   -3.8597   -3.4808   -1.4111 H   0  0  0  0  0  0  0  0  0  0  0  0
   -5.0503   -2.6431   -0.4420 H   0  0  0  0  0  0  0  0  0  0  0  0
   -2.5373    0.4973   -2.3094 H   0  0  0  0  0  0  0  0  0  0  0  0
   -3.9444    0.7349   -3.3572 H   0  0  0  0  0  0  0  0  0  0  0  0
   -4.0822    1.0872   -1.6184 H   0  0  0  0  0  0  0  0  0  0  0  0
   -1.6395   -4.5021    1.3053 H   0  0  0  0  0  0  0  0  0  0  0  0
    3.6375    1.1868    1.7167 H   0  0  0  0  0  0  0  0  0  0  0  0
    3.2548    2.4411   -0.2982 H   0  0  0  0  0  0  0  0  0  0  0  0
    1.4783    2.6067   -3.6978 H   0  0  0  0  0  0  0  0  0  0  0  0
    1.3444    3.5942   -2.2281 H   0  0  0  0  0  0  0  0  0  0  0  0
    3.4333    3.9817   -2.2790 H   0  0  0  0  0  0  0  0  0  0  0  0
    1.1665   -1.0113   -1.1507 H   0  0  0  0  0  0  0  0  0  0  0  0
    0.8069   -0.9186   -2.8734 H   0  0  0  0  0  0  0  0  0  0  0  0
    2.8746    0.1982   -3.4092 H   0  0  0  0  0  0  0  0  0  0  0  0
  2  1  1  0  0  0  0
  3  2  1  0  0  0  0
  4  3  1  0  0  0  0
  5  4  1  0  0  0  0
  6  4  1  0  0  0  0
  7  6  1  0  0  0  0
  8  6  1  0  0  0  0
  9  8  1  0  0  0  0
 10  8  1  0  0  0  0
 11 10  2  0  0  0  0
 12 11  1  0  0  0  0
 13 12  1  0  0  0  0
 14 13  1  0  0  0  0
 15 14  1  0  0  0  0
 16 14  1  0  0  0  0
 17 16  1  0  0  0  0
 18 17  1  0  0  0  0
 19 18  2  0  0  0  0
 20 18  1  0  0  0  0
 21 20  2  0  0  0  0
 22 20  1  0  0  0  0
 23 22  1  0  0  0  0
 24 23  1  0  0  0  0
 25 23  1  0  0  0  0
 26 14  1  0  0  0  0
 27 26  1  0  0  0  0
 28 27  1  0  0  0  0
 29 27  1  0  0  0  0
 30 29  1  0  0  0  0
 31 30  1  0  0  0  0
 32 31  1  0  0  0  0
 33 31  2  0  0  0  0
 34 27  1  0  0  0  0
 34 12  1  0  0  0  0
 35 34  1  0  0  0  0
 36 35  2  0  0  0  0
 37 35  1  0  0  0  0
 38  6  1  0  0  0  0
 39 38  1  0  0  0  0
 40 39  1  0  0  0  0
 40  3  1  0  0  0  0
 41 40  1  0  0  0  0
 42 41  1  0  0  0  0
 43 42  1  0  0  0  0
 44 41  1  0  0  0  0
 45 44  1  0  0  0  0
 46 45  1  0  0  0  0
 46 41  1  0  0  0  0
 46  3  1  0  0  0  0
  1 47  1  0  0  0  0
  1 48  1  0  0  0  0
  1 49  1  0  0  0  0
  4 50  1  0  0  0  0
  5 51  1  0  0  0  0
  7 52  1  0  0  0  0
  7 53  1  0  0  0  0
  7 54  1  0  0  0  0
  8 55  1  0  0  0  0
  9 56  1  0  0  0  0
 11 57  1  0  0  0  0
 12 58  1  0  0  0  0
 15 59  1  0  0  0  0
 16 60  1  0  0  0  0
 16 61  1  0  0  0  0
 23 62  1  0  0  0  0
 24 63  1  0  0  0  0
 24 64  1  0  0  0  0
 24 65  1  0  0  0  0
 25 66  1  0  0  0  0
 25 67  1  0  0  0  0
 25 68  1  0  0  0  0
 26 69  1  0  0  0  0
 26 70  1  0  0  0  0
 28 71  1  0  0  0  0
 29 72  1  0  0  0  0
 29 73  1  0  0  0  0
 32 74  1  0  0  0  0
 32 75  1  0  0  0  0
 32 76  1  0  0  0  0
 34 77  1  0  0  0  0
 38 78  1  0  0  0  0
 40 79  1  0  0  0  0
 42 80  1  0  0  0  0
 42 81  1  0  0  0  0
 43 82  1  0  0  0  0
 45 83  1  0  0  0  0
 45 84  1  0  0  0  0
 46 85  1  0  0  0  0
M  CHG  2  35   1  37  -1
M  END
>  <energy>
237.5015743461982

$$$$
