CC1CC2(O)CCC12
                    3D

 20 21  0  0  0  0  0  0  0  0999 V2000
   -2.0046    0.6671   -0.6804 C   0  0  0  0  0  0  0  0  0  0  0  0
   -1.2158   -0.0714    0.3862 C   0  0  0  0  0  0  0  0  0  0  0  0
   -0.5291   -1.3802   -0.0596 C   0  0  0  0  0  0  0  0  0  0  0  0
    0.8218   -0.8301    0.4113 C   0  0  0  0  0  0  0  0  0  0  0  0
    1.5671   -1.5842    1.3729 O   0  0  0  0  0  0  0  0  0  0  0  0
    1.5767   -0.0610   -0.6810 C   0  0  0  0  0  0  0  0  0  0  0  0
    0.9914    1.2526   -0.1425 C   0  0  0  0  0  0  0  0  0  0  0  0
    0.1471    0.4677    0.8663 C   0  0  0  0  0  0  0  0  0  0  0  0
   -1.4393    0.7764   -1.6109 H   0  0  0  0  0  0  0  0  0  0  0  0
   -2.9252    0.1234   -0.9175 H   0  0  0  0  0  0  0  0  0  0  0  0
   -2.2867    1.6648   -0.3293 H   0  0  0  0  0  0  0  0  0  0  0  0
   -1.8781   -0.2480    1.2468 H   0  0  0  0  0  0  0  0  0  0  0  0
   -0.8706   -2.2625    0.4937 H   0  0  0  0  0  0  0  0  0  0  0  0
   -0.5930   -1.6118   -1.1282 H   0  0  0  0  0  0  0  0  0  0  0  0
    2.2467   -0.9755    1.7087 H   0  0  0  0  0  0  0  0  0  0  0  0
    1.2902   -0.2993   -1.7107 H   0  0  0  0  0  0  0  0  0  0  0  0
    2.6679   -0.1203   -0.6092 H   0  0  0  0  0  0  0  0  0  0  0  0
    1.7428    1.8926    0.3351 H   0  0  0  0  0  0  0  0  0  0  0  0
    0.4523    1.8624   -0.8717 H   0  0  0  0  0  0  0  0  0  0  0  0
    0.2383    0.7375    1.9202 H   0  0  0  0  0  0  0  0  0  0  0  0
  2  1  1  0  0  0  0
  3  2  1  0  0  0  0
  4  3  1  0  0  0  0
  5  4  1  0  0  0  0
  6  4  1  0  0  0  0
  7  6  1  0  0  0  0
  8  7  1  0  0  0  0
  8  2  1  0  0  0  0
  8  4  1  0  0  0  0
  1  9  1  0  0  0  0
  1 10  1  0  0  0  0
  1 11  1  0  0  0  0
  2 12  1  0  0  0  0
  3 13  1  0  0  0  0
  3 14  1  0  0  0  0
  5 15  1  0  0  0  0
  6 16  1  0  0  0  0
  6 17  1  0  0  0  0
  7 18  1  0  0  0  0
  7 19  1  0  0  0  0
  8 20  1  0  0  0  0
M  END
>  <energy>
23.797408525405615

$$$$
