CC1(C)CC(CNC(=O)CNC(=O)CN[N+](C)(C)CC=[N+]=[N-])CC23C(O)C4OCC2C4C13
                    3D

 69 72  0  0  0  0  0  0  0  0999 V2000
    1.1194    1.8219    1.5380 C   0  0  0  0  0  0  0  0  0  0  0  0
    2.3423    1.3290    0.7264 C   0  0  0  0  0  0  0  0  0  0  0  0
    3.4856    2.3186    0.9877 C   0  0  0  0  0  0  0  0  0  0  0  0
    2.7437   -0.0880    1.2194 C   0  0  0  0  0  0  0  0  0  0  0  0
    1.8384   -1.1933    0.6411 C   0  0  0  0  0  0  0  0  0  0  0  0
    2.0325   -2.5286    1.3826 C   0  0  0  0  0  0  0  0  0  0  0  0
    1.2752   -2.5546    2.6198 N   0  0  0  0  0  0  0  0  0  0  0  0
   -0.0760   -2.7122    2.7401 C   0  0  0  0  0  0  0  0  0  0  0  0
   -0.6184   -2.5117    3.8302 O   0  0  0  0  0  0  0  0  0  0  0  0
   -0.8899   -3.1291    1.5144 C   0  0  0  0  0  0  0  0  0  0  0  0
   -2.2041   -2.5181    1.6397 N   0  0  0  0  0  0  0  0  0  0  0  0
   -2.9497   -2.1272    0.5633 C   0  0  0  0  0  0  0  0  0  0  0  0
   -2.6091   -2.2945   -0.6029 O   0  0  0  0  0  0  0  0  0  0  0  0
   -4.2316   -1.4048    0.9421 C   0  0  0  0  0  0  0  0  0  0  0  0
   -4.6555   -0.4402   -0.0928 N   0  0  0  0  0  0  0  0  0  0  0  0
   -3.8552    0.7925   -0.3695 N   0  3  0  0  0  0  0  0  0  0  0  0
   -4.8978    1.8563   -0.7327 C   0  0  0  0  0  0  0  0  0  0  0  0
   -2.9713    0.5319   -1.6108 C   0  0  0  0  0  0  0  0  0  0  0  0
   -2.9539    1.2562    0.7888 C   0  0  0  0  0  0  0  0  0  0  0  0
   -3.6595    1.6622    2.0312 C   0  0  0  0  0  0  0  0  0  0  0  0
   -3.2083    1.1861    3.1714 N   0  3  0  0  0  0  0  0  0  0  0  0
   -2.7929    0.7463    4.1365 N   0  5  0  0  0  0  0  0  0  0  0  0
    2.0589   -1.3736   -0.8726 C   0  0  0  0  0  0  0  0  0  0  0  0
    2.1969   -0.0451   -1.5742 C   0  0  0  0  0  0  0  0  0  0  0  0
    1.4395    0.2081   -2.8877 C   0  0  0  0  0  0  0  0  0  0  0  0
    1.5542   -0.8746   -3.7899 O   0  0  0  0  0  0  0  0  0  0  0  0
    2.2360    1.4775   -3.3034 C   0  0  0  0  0  0  0  0  0  0  0  0
    3.3602    1.1400   -4.1158 O   0  0  0  0  0  0  0  0  0  0  0  0
    4.2300    0.3889   -3.2611 C   0  0  0  0  0  0  0  0  0  0  0  0
    3.6455    0.5376   -1.8650 C   0  0  0  0  0  0  0  0  0  0  0  0
    2.8522    1.8509   -1.9442 C   0  0  0  0  0  0  0  0  0  0  0  0
    1.9585    1.3010   -0.7763 C   0  0  0  0  0  0  0  0  0  0  0  0
    0.2475    1.1754    1.3996 H   0  0  0  0  0  0  0  0  0  0  0  0
    0.8188    2.8282    1.2214 H   0  0  0  0  0  0  0  0  0  0  0  0
    1.3415    1.8578    2.6111 H   0  0  0  0  0  0  0  0  0  0  0  0
    3.2372    3.3180    0.6132 H   0  0  0  0  0  0  0  0  0  0  0  0
    4.4140    2.0062    0.4989 H   0  0  0  0  0  0  0  0  0  0  0  0
    3.6990    2.3984    2.0602 H   0  0  0  0  0  0  0  0  0  0  0  0
    3.7821   -0.3085    0.9499 H   0  0  0  0  0  0  0  0  0  0  0  0
    2.7149   -0.1104    2.3169 H   0  0  0  0  0  0  0  0  0  0  0  0
    0.7989   -0.8726    0.7740 H   0  0  0  0  0  0  0  0  0  0  0  0
    1.7017   -3.3733    0.7737 H   0  0  0  0  0  0  0  0  0  0  0  0
    3.0824   -2.6968    1.6374 H   0  0  0  0  0  0  0  0  0  0  0  0
    1.7210   -2.2225    3.4673 H   0  0  0  0  0  0  0  0  0  0  0  0
   -0.4383   -2.8037    0.5753 H   0  0  0  0  0  0  0  0  0  0  0  0
   -1.0085   -4.2170    1.5075 H   0  0  0  0  0  0  0  0  0  0  0  0
   -2.5549   -2.4398    2.5930 H   0  0  0  0  0  0  0  0  0  0  0  0
   -4.1589   -0.9488    1.9287 H   0  0  0  0  0  0  0  0  0  0  0  0
   -5.0084   -2.1752    1.0182 H   0  0  0  0  0  0  0  0  0  0  0  0
   -4.8462   -0.9864   -0.9456 H   0  0  0  0  0  0  0  0  0  0  0  0
   -5.3992    1.5533   -1.6572 H   0  0  0  0  0  0  0  0  0  0  0  0
   -4.3772    2.8081   -0.8721 H   0  0  0  0  0  0  0  0  0  0  0  0
   -5.6237    1.9281    0.0821 H   0  0  0  0  0  0  0  0  0  0  0  0
   -3.5713    0.0488   -2.3879 H   0  0  0  0  0  0  0  0  0  0  0  0
   -2.1171   -0.0842   -1.3222 H   0  0  0  0  0  0  0  0  0  0  0  0
   -2.6008    1.4994   -1.9671 H   0  0  0  0  0  0  0  0  0  0  0  0
   -2.2129    0.4748    0.9762 H   0  0  0  0  0  0  0  0  0  0  0  0
   -2.4235    2.1379    0.4131 H   0  0  0  0  0  0  0  0  0  0  0  0
   -4.4684    2.3993    2.0187 H   0  0  0  0  0  0  0  0  0  0  0  0
    2.9560   -1.9783   -1.0581 H   0  0  0  0  0  0  0  0  0  0  0  0
    1.2139   -1.9486   -1.2673 H   0  0  0  0  0  0  0  0  0  0  0  0
    0.3815    0.4310   -2.7150 H   0  0  0  0  0  0  0  0  0  0  0  0
    1.0707   -1.6399   -3.4417 H   0  0  0  0  0  0  0  0  0  0  0  0
    1.6242    2.2527   -3.7713 H   0  0  0  0  0  0  0  0  0  0  0  0
    5.2307    0.8263   -3.3236 H   0  0  0  0  0  0  0  0  0  0  0  0
    4.2766   -0.6543   -3.5899 H   0  0  0  0  0  0  0  0  0  0  0  0
    4.3860    0.4282   -1.0722 H   0  0  0  0  0  0  0  0  0  0  0  0
    3.3858    2.7948   -1.8412 H   0  0  0  0  0  0  0  0  0  0  0  0
    0.9292    1.6839   -0.8776 H   0  0  0  0  0  0  0  0  0  0  0  0
  2  1  1  0  0  0  0
  3  2  1  0  0  0  0
  4  2  1  0  0  0  0
  5  4  1  0  0  0  0
  6  5  1  0  0  0  0
  7  6  1  0  0  0  0
  8  7  1  0  0  0  0
  9  8  2  0  0  0  0
 10  8  1  0  0  0  0
 11 10  1  0  0  0  0
 12 11  1  0  0  0  0
 13 12  2  0  0  0  0
 14 12  1  0  0  0  0
 15 14  1  0  0  0  0
 16 15  1  0  0  0  0
 17 16  1  0  0  0  0
 18 16  1  0  0  0  0
 19 16  1  0  0  0  0
 20 19  1  0  0  0  0
 21 20  2  0  0  0  0
 22 21  2  0  0  0  0
 23  5  1  0  0  0  0
 24 23  1  0  0  0  0
 25 24  1  0  0  0  0
 26 25  1  0  0  0  0
 27 25  1  0  0  0  0
 28 27  1  0  0  0  0
 29 28  1  0  0  0  0
 30 29  1  0  0  0  0
 30 24  1  0  0  0  0
 31 30  1  0  0  0  0
 31 27  1  0  0  0  0
 32 31  1  0  0  0  0
 32  2  1  0  0  0  0
 32 24  1  0  0  0  0
  1 33  1  0  0  0  0
  1 34  1  0  0  0  0
  1 35  1  0  0  0  0
  3 36  1  0  0  0  0
  3 37  1  0  0  0  0
  3 38  1  0  0  0  0
  4 39  1  0  0  0  0
  4 40  1  0  0  0  0
  5 41  1  0  0  0  0
  6 42  1  0  0  0  0
  6 43  1  0  0  0  0
  7 44  1  0  0  0  0
 10 45  1  0  0  0  0
 10 46  1  0  0  0  0
 11 47  1  0  0  0  0
 14 48  1  0  0  0  0
 14 49  1  0  0  0  0
 15 50  1  0  0  0  0
 17 51  1  0  0  0  0
 17 52  1  0  0  0  0
 17 53  1  0  0  0  0
 18 54  1  0  0  0  0
 18 55  1  0  0  0  0
 18 56  1  0  0  0  0
 19 57  1  0  0  0  0
 19 58  1  0  0  0  0
 20 59  1  0  0  0  0
 23 60  1  0  0  0  0
 23 61  1  0  0  0  0
 25 62  1  0  0  0  0
 26 63  1  0  0  0  0
 27 64  1  0  0  0  0
 29 65  1  0  0  0  0
 29 66  1  0  0  0  0
 30 67  1  0  0  0  0
 31 68  1  0  0  0  0
 32 69  1  0  0  0  0
M  CHG  3  16   1  21   1  22  -1
M  END
>  <energy>
217.59660521735179

$$$$
