C1=Cc2[nH]cc3c2C2=NCc4cccc(c42)OCC(=C1)C=C3
                    3D

 36 40  0  0  0  0  0  0  0  0999 V2000
    2.5978    0.0621   -2.1627 C   0  0  0  0  0  0  0  0  0  0  0  0
    2.3899   -1.2512   -1.9339 C   0  0  0  0  0  0  0  0  0  0  0  0
    1.4978   -1.7390   -0.9207 C   0  0  0  0  0  0  0  0  0  0  0  0
    2.0115   -2.7794   -0.1374 N   0  0  0  0  0  0  0  0  0  0  0  0
    2.3379   -2.1834    1.0834 C   0  0  0  0  0  0  0  0  0  0  0  0
    1.6820   -0.9634    1.0604 C   0  0  0  0  0  0  0  0  0  0  0  0
    0.7133   -1.0652    0.0161 C   0  0  0  0  0  0  0  0  0  0  0  0
   -0.7189   -1.1370    0.1964 C   0  0  0  0  0  0  0  0  0  0  0  0
   -1.2260   -2.2915    0.5474 N   0  0  0  0  0  0  0  0  0  0  0  0
   -2.6510   -2.0349    0.8422 C   0  0  0  0  0  0  0  0  0  0  0  0
   -2.8555   -0.5807    0.6034 C   0  0  0  0  0  0  0  0  0  0  0  0
   -4.0319    0.1428    0.7437 C   0  0  0  0  0  0  0  0  0  0  0  0
   -4.0218    1.4853    0.3827 C   0  0  0  0  0  0  0  0  0  0  0  0
   -2.8531    2.0627   -0.1303 C   0  0  0  0  0  0  0  0  0  0  0  0
   -1.6659    1.3211   -0.2556 C   0  0  0  0  0  0  0  0  0  0  0  0
   -1.6667   -0.0091    0.1446 C   0  0  0  0  0  0  0  0  0  0  0  0
   -0.6788    1.9493   -0.9514 O   0  0  0  0  0  0  0  0  0  0  0  0
    0.3776    2.4789   -0.1359 C   0  0  0  0  0  0  0  0  0  0  0  0
    1.6313    1.6699   -0.4043 C   0  0  0  0  0  0  0  0  0  0  0  0
    1.8082    1.1636   -1.6467 C   0  0  0  0  0  0  0  0  0  0  0  0
    2.3511    1.3747    0.8303 C   0  0  0  0  0  0  0  0  0  0  0  0
    2.2962    0.2305    1.5369 C   0  0  0  0  0  0  0  0  0  0  0  0
    3.3155    0.3431   -2.9313 H   0  0  0  0  0  0  0  0  0  0  0  0
    3.0027   -1.9713   -2.4711 H   0  0  0  0  0  0  0  0  0  0  0  0
    2.5468   -3.5482   -0.5112 H   0  0  0  0  0  0  0  0  0  0  0  0
    3.1541   -2.5776    1.6733 H   0  0  0  0  0  0  0  0  0  0  0  0
   -2.8661   -2.2956    1.8831 H   0  0  0  0  0  0  0  0  0  0  0  0
   -3.2779   -2.6316    0.1731 H   0  0  0  0  0  0  0  0  0  0  0  0
   -4.9412   -0.3288    1.1045 H   0  0  0  0  0  0  0  0  0  0  0  0
   -4.9293    2.0798    0.4622 H   0  0  0  0  0  0  0  0  0  0  0  0
   -2.8770    3.0955   -0.4706 H   0  0  0  0  0  0  0  0  0  0  0  0
    0.5436    3.5221   -0.4286 H   0  0  0  0  0  0  0  0  0  0  0  0
    0.0953    2.4763    0.9259 H   0  0  0  0  0  0  0  0  0  0  0  0
    1.1584    1.5463   -2.4389 H   0  0  0  0  0  0  0  0  0  0  0  0
    2.8926    2.2174    1.2553 H   0  0  0  0  0  0  0  0  0  0  0  0
    2.8574    0.1666    2.4656 H   0  0  0  0  0  0  0  0  0  0  0  0
  2  1  2  0  0  0  0
  3  2  1  0  0  0  0
  4  3  1  0  0  0  0
  5  4  1  0  0  0  0
  6  5  2  0  0  0  0
  7  6  1  0  0  0  0
  7  3  2  0  0  0  0
  8  7  1  0  0  0  0
  9  8  2  0  0  0  0
 10  9  1  0  0  0  0
 11 10  1  0  0  0  0
 12 11  2  0  0  0  0
 13 12  1  0  0  0  0
 14 13  2  0  0  0  0
 15 14  1  0  0  0  0
 16 15  2  0  0  0  0
 16 11  1  0  0  0  0
 16  8  1  0  0  0  0
 17 15  1  0  0  0  0
 18 17  1  0  0  0  0
 19 18  1  0  0  0  0
 20 19  2  0  0  0  0
 20  1  1  0  0  0  0
 21 19  1  0  0  0  0
 22 21  2  0  0  0  0
 22  6  1  0  0  0  0
  1 23  1  0  0  0  0
  2 24  1  0  0  0  0
  4 25  1  0  0  0  0
  5 26  1  0  0  0  0
 10 27  1  0  0  0  0
 10 28  1  0  0  0  0
 12 29  1  0  0  0  0
 13 30  1  0  0  0  0
 14 31  1  0  0  0  0
 18 32  1  0  0  0  0
 18 33  1  0  0  0  0
 20 34  1  0  0  0  0
 21 35  1  0  0  0  0
 22 36  1  0  0  0  0
M  END
>  <energy>
199.248528188454

$$$$
