N#CC1=C2Nc3sccc3C3=CC=CC32[n+]2ccccc21
                    3D

 31 35  0  0  0  0  0  0  0  0999 V2000
    1.2551    2.2521   -3.8291 N   0  0  0  0  0  0  0  0  0  0  0  0
    1.1377    1.5129   -2.9461 C   0  0  0  0  0  0  0  0  0  0  0  0
    1.0073    0.6245   -1.8577 C   0  0  0  0  0  0  0  0  0  0  0  0
   -0.0954   -0.0713   -1.5196 C   0  0  0  0  0  0  0  0  0  0  0  0
   -1.3979    0.1479   -1.9715 N   0  0  0  0  0  0  0  0  0  0  0  0
   -2.3360    0.4062   -1.0004 C   0  0  0  0  0  0  0  0  0  0  0  0
   -3.7520    1.3109   -1.2678 S   0  0  0  0  0  0  0  0  0  0  0  0
   -4.2084    1.1945    0.3823 C   0  0  0  0  0  0  0  0  0  0  0  0
   -3.3066    0.4628    1.1283 C   0  0  0  0  0  0  0  0  0  0  0  0
   -2.2205    0.0210    0.3296 C   0  0  0  0  0  0  0  0  0  0  0  0
   -1.1294   -0.8272    0.6929 C   0  0  0  0  0  0  0  0  0  0  0  0
   -1.2646   -2.0525    1.2430 C   0  0  0  0  0  0  0  0  0  0  0  0
   -0.2491   -2.9264    0.6842 C   0  0  0  0  0  0  0  0  0  0  0  0
    0.4893   -2.2530   -0.2153 C   0  0  0  0  0  0  0  0  0  0  0  0
    0.1114   -0.7901   -0.1775 C   0  0  0  0  0  0  0  0  0  0  0  0
    1.2770   -0.0501    0.3321 N   0  3  0  0  0  0  0  0  0  0  0  0
    1.7842   -0.0968    1.5754 C   0  0  0  0  0  0  0  0  0  0  0  0
    2.9571    0.5996    1.8525 C   0  0  0  0  0  0  0  0  0  0  0  0
    3.5816    1.3248    0.8373 C   0  0  0  0  0  0  0  0  0  0  0  0
    3.0263    1.3581   -0.4403 C   0  0  0  0  0  0  0  0  0  0  0  0
    1.8550    0.6500   -0.6703 C   0  0  0  0  0  0  0  0  0  0  0  0
   -1.5041    0.6905   -2.8334 H   0  0  0  0  0  0  0  0  0  0  0  0
   -5.1278    1.6567    0.7198 H   0  0  0  0  0  0  0  0  0  0  0  0
   -3.4441    0.2585    2.1839 H   0  0  0  0  0  0  0  0  0  0  0  0
   -2.1625   -2.4422    1.7098 H   0  0  0  0  0  0  0  0  0  0  0  0
   -0.2028   -3.9907    0.8812 H   0  0  0  0  0  0  0  0  0  0  0  0
    1.2693   -2.6858   -0.8253 H   0  0  0  0  0  0  0  0  0  0  0  0
    1.2663   -0.6894    2.3224 H   0  0  0  0  0  0  0  0  0  0  0  0
    3.3873    0.5765    2.8527 H   0  0  0  0  0  0  0  0  0  0  0  0
    4.4974    1.8781    1.0481 H   0  0  0  0  0  0  0  0  0  0  0  0
    3.4990    1.9500   -1.2213 H   0  0  0  0  0  0  0  0  0  0  0  0
  2  1  3  0  0  0  0
  3  2  1  0  0  0  0
  4  3  2  0  0  0  0
  5  4  1  0  0  0  0
  6  5  1  0  0  0  0
  7  6  1  0  0  0  0
  8  7  1  0  0  0  0
  9  8  2  0  0  0  0
 10  9  1  0  0  0  0
 10  6  2  0  0  0  0
 11 10  1  0  0  0  0
 12 11  2  0  0  0  0
 13 12  1  0  0  0  0
 14 13  2  0  0  0  0
 15 14  1  0  0  0  0
 15 11  1  0  0  0  0
 15  4  1  0  0  0  0
 16 15  1  0  0  0  0
 17 16  2  0  0  0  0
 18 17  1  0  0  0  0
 19 18  2  0  0  0  0
 20 19  1  0  0  0  0
 21 20  2  0  0  0  0
 21 16  1  0  0  0  0
 21  3  1  0  0  0  0
  5 22  1  0  0  0  0
  8 23  1  0  0  0  0
  9 24  1  0  0  0  0
 12 25  1  0  0  0  0
 13 26  1  0  0  0  0
 14 27  1  0  0  0  0
 17 28  1  0  0  0  0
 18 29  1  0  0  0  0
 19 30  1  0  0  0  0
 20 31  1  0  0  0  0
M  CHG  1  16   1
M  END
>  <energy>
122.5139764559316

$$$$
