O=C(NCC1CCN(C2CCOCC2)C1)C1CC(O)C(CNC(=O)C2CC3(O)CC4CC(C4)(C2)C3)C1
                    3D

 81 86  0  0  0  0  0  0  0  0999 V2000
    3.8714   -3.2517   -0.6673 O   0  0  0  0  0  0  0  0  0  0  0  0
    3.5303   -2.4866   -1.5679 C   0  0  0  0  0  0  0  0  0  0  0  0
    4.4964   -1.7970   -2.2445 N   0  0  0  0  0  0  0  0  0  0  0  0
    4.3478   -0.5890   -3.0446 C   0  0  0  0  0  0  0  0  0  0  0  0
    4.5829    0.6338   -2.1644 C   0  0  0  0  0  0  0  0  0  0  0  0
    5.9280    1.3003   -2.4035 C   0  0  0  0  0  0  0  0  0  0  0  0
    5.7335    2.6308   -1.6998 C   0  0  0  0  0  0  0  0  0  0  0  0
    4.3131    2.9682   -1.8968 N   0  0  0  0  0  0  0  0  0  0  0  0
    3.7381    3.6887   -0.7596 C   0  0  0  0  0  0  0  0  0  0  0  0
    2.5114    4.5036   -1.2002 C   0  0  0  0  0  0  0  0  0  0  0  0
    1.6473    4.8974   -0.0062 C   0  0  0  0  0  0  0  0  0  0  0  0
    2.4473    5.0153    1.1667 O   0  0  0  0  0  0  0  0  0  0  0  0
    2.9380    3.7477    1.6136 C   0  0  0  0  0  0  0  0  0  0  0  0
    3.3903    2.8410    0.4678 C   0  0  0  0  0  0  0  0  0  0  0  0
    3.6163    1.7879   -2.4047 C   0  0  0  0  0  0  0  0  0  0  0  0
    2.0758   -2.2905   -1.9796 C   0  0  0  0  0  0  0  0  0  0  0  0
    1.4712   -1.0213   -1.3740 C   0  0  0  0  0  0  0  0  0  0  0  0
    0.2894   -1.4679   -0.5205 C   0  0  0  0  0  0  0  0  0  0  0  0
    0.2491   -0.6738    0.6555 O   0  0  0  0  0  0  0  0  0  0  0  0
    0.5556   -2.9403   -0.2041 C   0  0  0  0  0  0  0  0  0  0  0  0
   -0.7024   -3.7380    0.1397 C   0  0  0  0  0  0  0  0  0  0  0  0
   -1.4540   -3.1099    1.2062 N   0  0  0  0  0  0  0  0  0  0  0  0
   -2.8348   -3.0594    1.1564 C   0  0  0  0  0  0  0  0  0  0  0  0
   -3.4962   -3.6234    0.2927 O   0  0  0  0  0  0  0  0  0  0  0  0
   -3.4303   -2.1190    2.1991 C   0  0  0  0  0  0  0  0  0  0  0  0
   -4.9733   -2.4298    2.4337 C   0  0  0  0  0  0  0  0  0  0  0  0
   -5.8984   -1.2162    2.7602 C   0  0  0  0  0  0  0  0  0  0  0  0
   -6.6456   -1.5173    3.9252 O   0  0  0  0  0  0  0  0  0  0  0  0
   -6.8696   -0.6802    1.6467 C   0  0  0  0  0  0  0  0  0  0  0  0
   -6.1510    0.2917    0.6508 C   0  0  0  0  0  0  0  0  0  0  0  0
   -5.0834    1.4040    1.1277 C   0  0  0  0  0  0  0  0  0  0  0  0
   -4.3216    0.1416    1.6860 C   0  0  0  0  0  0  0  0  0  0  0  0
   -4.8884   -0.4413    0.2456 C   0  0  0  0  0  0  0  0  0  0  0  0
   -3.0389   -0.6364    1.7832 C   0  0  0  0  0  0  0  0  0  0  0  0
   -5.0095   -0.0518    3.0570 C   0  0  0  0  0  0  0  0  0  0  0  0
    1.1898   -3.4431   -1.4972 C   0  0  0  0  0  0  0  0  0  0  0  0
    5.4354   -2.0165   -1.9237 H   0  0  0  0  0  0  0  0  0  0  0  0
    5.0797   -0.6584   -3.8558 H   0  0  0  0  0  0  0  0  0  0  0  0
    3.3521   -0.5666   -3.4926 H   0  0  0  0  0  0  0  0  0  0  0  0
    4.5213    0.3544   -1.1023 H   0  0  0  0  0  0  0  0  0  0  0  0
    6.7632    0.7252   -1.9921 H   0  0  0  0  0  0  0  0  0  0  0  0
    6.1091    1.4577   -3.4746 H   0  0  0  0  0  0  0  0  0  0  0  0
    6.3875    3.4032   -2.1177 H   0  0  0  0  0  0  0  0  0  0  0  0
    5.9894    2.5099   -0.6404 H   0  0  0  0  0  0  0  0  0  0  0  0
    4.4876    4.4298   -0.4406 H   0  0  0  0  0  0  0  0  0  0  0  0
    1.8875    3.9709   -1.9272 H   0  0  0  0  0  0  0  0  0  0  0  0
    2.8640    5.4100   -1.7104 H   0  0  0  0  0  0  0  0  0  0  0  0
    0.8534    4.1601    0.1657 H   0  0  0  0  0  0  0  0  0  0  0  0
    1.1611    5.8598   -0.1939 H   0  0  0  0  0  0  0  0  0  0  0  0
    3.7827    3.9540    2.2793 H   0  0  0  0  0  0  0  0  0  0  0  0
    2.1662    3.2534    2.2141 H   0  0  0  0  0  0  0  0  0  0  0  0
    4.2285    2.2206    0.8033 H   0  0  0  0  0  0  0  0  0  0  0  0
    2.5741    2.1481    0.2290 H   0  0  0  0  0  0  0  0  0  0  0  0
    3.4514    1.9280   -3.4804 H   0  0  0  0  0  0  0  0  0  0  0  0
    2.6375    1.6162   -1.9518 H   0  0  0  0  0  0  0  0  0  0  0  0
    2.0379   -2.2632   -3.0744 H   0  0  0  0  0  0  0  0  0  0  0  0
    2.1931   -0.4549   -0.7761 H   0  0  0  0  0  0  0  0  0  0  0  0
    1.1134   -0.3496   -2.1635 H   0  0  0  0  0  0  0  0  0  0  0  0
   -0.6508   -1.3320   -1.0691 H   0  0  0  0  0  0  0  0  0  0  0  0
   -0.4055   -1.0870    1.2429 H   0  0  0  0  0  0  0  0  0  0  0  0
    1.2624   -3.0107    0.6335 H   0  0  0  0  0  0  0  0  0  0  0  0
   -1.3409   -3.8320   -0.7467 H   0  0  0  0  0  0  0  0  0  0  0  0
   -0.4428   -4.7515    0.4635 H   0  0  0  0  0  0  0  0  0  0  0  0
   -1.0145   -3.0296    2.1161 H   0  0  0  0  0  0  0  0  0  0  0  0
   -2.9197   -2.3340    3.1491 H   0  0  0  0  0  0  0  0  0  0  0  0
   -5.0095   -3.1356    3.2772 H   0  0  0  0  0  0  0  0  0  0  0  0
   -5.4095   -3.0014    1.6068 H   0  0  0  0  0  0  0  0  0  0  0  0
   -7.4125   -2.0587    3.6629 H   0  0  0  0  0  0  0  0  0  0  0  0
   -7.3192   -1.5212    1.1045 H   0  0  0  0  0  0  0  0  0  0  0  0
   -7.7012   -0.1374    2.1141 H   0  0  0  0  0  0  0  0  0  0  0  0
   -6.8051    0.6062   -0.1675 H   0  0  0  0  0  0  0  0  0  0  0  0
   -5.4609    2.1511    1.8314 H   0  0  0  0  0  0  0  0  0  0  0  0
   -4.5734    1.9476    0.3210 H   0  0  0  0  0  0  0  0  0  0  0  0
   -5.0122   -1.5102    0.0663 H   0  0  0  0  0  0  0  0  0  0  0  0
   -4.3716   -0.0540   -0.6457 H   0  0  0  0  0  0  0  0  0  0  0  0
   -2.3802   -0.2100    2.5501 H   0  0  0  0  0  0  0  0  0  0  0  0
   -2.4789   -0.6016    0.8431 H   0  0  0  0  0  0  0  0  0  0  0  0
   -5.5912    0.8087    3.4128 H   0  0  0  0  0  0  0  0  0  0  0  0
   -4.3097   -0.2527    3.8794 H   0  0  0  0  0  0  0  0  0  0  0  0
    1.7291   -4.3831   -1.3447 H   0  0  0  0  0  0  0  0  0  0  0  0
    0.4165   -3.6313   -2.2533 H   0  0  0  0  0  0  0  0  0  0  0  0
  2  1  2  0  0  0  0
  3  2  1  0  0  0  0
  4  3  1  0  0  0  0
  5  4  1  0  0  0  0
  6  5  1  0  0  0  0
  7  6  1  0  0  0  0
  8  7  1  0  0  0  0
  9  8  1  0  0  0  0
 10  9  1  0  0  0  0
 11 10  1  0  0  0  0
 12 11  1  0  0  0  0
 13 12  1  0  0  0  0
 14 13  1  0  0  0  0
 14  9  1  0  0  0  0
 15  8  1  0  0  0  0
 15  5  1  0  0  0  0
 16  2  1  0  0  0  0
 17 16  1  0  0  0  0
 18 17  1  0  0  0  0
 19 18  1  0  0  0  0
 20 18  1  0  0  0  0
 21 20  1  0  0  0  0
 22 21  1  0  0  0  0
 23 22  1  0  0  0  0
 24 23  2  0  0  0  0
 25 23  1  0  0  0  0
 26 25  1  0  0  0  0
 27 26  1  0  0  0  0
 28 27  1  0  0  0  0
 29 27  1  0  0  0  0
 30 29  1  0  0  0  0
 31 30  1  0  0  0  0
 32 31  1  0  0  0  0
 33 32  1  0  0  0  0
 33 30  1  0  0  0  0
 34 32  1  0  0  0  0
 34 25  1  0  0  0  0
 35 32  1  0  0  0  0
 35 27  1  0  0  0  0
 36 20  1  0  0  0  0
 36 16  1  0  0  0  0
  3 37  1  0  0  0  0
  4 38  1  0  0  0  0
  4 39  1  0  0  0  0
  5 40  1  0  0  0  0
  6 41  1  0  0  0  0
  6 42  1  0  0  0  0
  7 43  1  0  0  0  0
  7 44  1  0  0  0  0
  9 45  1  0  0  0  0
 10 46  1  0  0  0  0
 10 47  1  0  0  0  0
 11 48  1  0  0  0  0
 11 49  1  0  0  0  0
 13 50  1  0  0  0  0
 13 51  1  0  0  0  0
 14 52  1  0  0  0  0
 14 53  1  0  0  0  0
 15 54  1  0  0  0  0
 15 55  1  0  0  0  0
 16 56  1  0  0  0  0
 17 57  1  0  0  0  0
 17 58  1  0  0  0  0
 18 59  1  0  0  0  0
 19 60  1  0  0  0  0
 20 61  1  0  0  0  0
 21 62  1  0  0  0  0
 21 63  1  0  0  0  0
 22 64  1  0  0  0  0
 25 65  1  0  0  0  0
 26 66  1  0  0  0  0
 26 67  1  0  0  0  0
 28 68  1  0  0  0  0
 29 69  1  0  0  0  0
 29 70  1  0  0  0  0
 30 71  1  0  0  0  0
 31 72  1  0  0  0  0
 31 73  1  0  0  0  0
 33 74  1  0  0  0  0
 33 75  1  0  0  0  0
 34 76  1  0  0  0  0
 34 77  1  0  0  0  0
 35 78  1  0  0  0  0
 35 79  1  0  0  0  0
 36 80  1  0  0  0  0
 36 81  1  0  0  0  0
M  END
>  <energy>
92.19335741164528

$$$$
