Oc1cccc2c[n+]3c4ccccc4n4cccc4c(n2)c13
                    3D

 34 38  0  0  0  0  0  0  0  0999 V2000
    2.3401   -1.0362   -2.5220 O   0  0  0  0  0  0  0  0  0  0  0  0
    1.4748   -1.4829   -1.5476 C   0  0  0  0  0  0  0  0  0  0  0  0
    1.8201   -2.8448   -1.1172 C   0  0  0  0  0  0  0  0  0  0  0  0
    2.5051   -3.0814    0.0293 C   0  0  0  0  0  0  0  0  0  0  0  0
    2.9502   -1.9789    0.8942 C   0  0  0  0  0  0  0  0  0  0  0  0
    2.0863   -1.0298    1.3175 C   0  0  0  0  0  0  0  0  0  0  0  0
    0.5984   -1.4019    1.3633 C   0  0  0  0  0  0  0  0  0  0  0  0
   -0.1106   -1.1044    0.3110 N   0  3  0  0  0  0  0  0  0  0  0  0
   -1.3639   -0.4735    0.4905 C   0  0  0  0  0  0  0  0  0  0  0  0
   -2.4080   -1.3221    0.9078 C   0  0  0  0  0  0  0  0  0  0  0  0
   -3.6939   -0.8214    1.0757 C   0  0  0  0  0  0  0  0  0  0  0  0
   -3.9451    0.5210    0.8258 C   0  0  0  0  0  0  0  0  0  0  0  0
   -2.9192    1.3765    0.4030 C   0  0  0  0  0  0  0  0  0  0  0  0
   -1.6001    0.9163    0.2135 C   0  0  0  0  0  0  0  0  0  0  0  0
   -0.5954    1.8998   -0.2249 N   0  0  0  0  0  0  0  0  0  0  0  0
   -0.8513    3.2211   -0.5601 C   0  0  0  0  0  0  0  0  0  0  0  0
    0.3297    3.8886   -0.7983 C   0  0  0  0  0  0  0  0  0  0  0  0
    1.3718    2.9597   -0.6551 C   0  0  0  0  0  0  0  0  0  0  0  0
    0.7952    1.7395   -0.3736 C   0  0  0  0  0  0  0  0  0  0  0  0
    1.4454    0.4894   -0.1616 C   0  0  0  0  0  0  0  0  0  0  0  0
    2.2522    0.2966    0.8665 N   0  0  0  0  0  0  0  0  0  0  0  0
    0.7052   -0.6807   -0.7672 C   0  0  0  0  0  0  0  0  0  0  0  0
    2.1363   -0.1285   -2.8114 H   0  0  0  0  0  0  0  0  0  0  0  0
    1.5947   -3.6568   -1.8057 H   0  0  0  0  0  0  0  0  0  0  0  0
    2.8374   -4.0858    0.2857 H   0  0  0  0  0  0  0  0  0  0  0  0
    3.9948   -1.7055    0.7291 H   0  0  0  0  0  0  0  0  0  0  0  0
    0.1598   -1.6690    2.3366 H   0  0  0  0  0  0  0  0  0  0  0  0
   -2.2452   -2.3830    1.0959 H   0  0  0  0  0  0  0  0  0  0  0  0
   -4.5046   -1.4740    1.3973 H   0  0  0  0  0  0  0  0  0  0  0  0
   -4.9531    0.9150    0.9605 H   0  0  0  0  0  0  0  0  0  0  0  0
   -3.2107    2.4127    0.2494 H   0  0  0  0  0  0  0  0  0  0  0  0
   -1.8505    3.6297   -0.5962 H   0  0  0  0  0  0  0  0  0  0  0  0
    0.4210    4.9403   -1.0462 H   0  0  0  0  0  0  0  0  0  0  0  0
    2.4330    3.1543   -0.7656 H   0  0  0  0  0  0  0  0  0  0  0  0
  2  1  1  0  0  0  0
  3  2  1  0  0  0  0
  4  3  2  0  0  0  0
  5  4  1  0  0  0  0
  6  5  2  0  0  0  0
  7  6  1  0  0  0  0
  8  7  2  0  0  0  0
  9  8  1  0  0  0  0
 10  9  2  0  0  0  0
 11 10  1  0  0  0  0
 12 11  2  0  0  0  0
 13 12  1  0  0  0  0
 14 13  2  0  0  0  0
 14  9  1  0  0  0  0
 15 14  1  0  0  0  0
 16 15  1  0  0  0  0
 17 16  2  0  0  0  0
 18 17  1  0  0  0  0
 19 18  2  0  0  0  0
 19 15  1  0  0  0  0
 20 19  1  0  0  0  0
 21 20  2  0  0  0  0
 21  6  1  0  0  0  0
 22 20  1  0  0  0  0
 22  2  2  0  0  0  0
 22  8  1  0  0  0  0
  1 23  1  0  0  0  0
  3 24  1  0  0  0  0
  4 25  1  0  0  0  0
  5 26  1  0  0  0  0
  7 27  1  0  0  0  0
 10 28  1  0  0  0  0
 11 29  1  0  0  0  0
 12 30  1  0  0  0  0
 13 31  1  0  0  0  0
 16 32  1  0  0  0  0
 17 33  1  0  0  0  0
 18 34  1  0  0  0  0
M  CHG  1   8   1
M  END
>  <energy>
234.25672952387387

$$$$
