CC(CCN1CCN(C(=O)N2CC[N+](C)(C)CC2)CC1)NC(=O)C1(C)CC2(C)C(=O)NC12
                    3D

 73 76  0  0  0  0  0  0  0  0999 V2000
    1.1830   -1.3570   -3.4044 C   0  0  0  0  0  0  0  0  0  0  0  0
    2.5606   -1.4149   -2.7459 C   0  0  0  0  0  0  0  0  0  0  0  0
    2.5789   -2.1834   -1.4245 C   0  0  0  0  0  0  0  0  0  0  0  0
    1.3269   -2.0780   -0.5468 C   0  0  0  0  0  0  0  0  0  0  0  0
    1.2211   -3.3129    0.2314 N   0  0  0  0  0  0  0  0  0  0  0  0
    1.5138   -3.0926    1.6592 C   0  0  0  0  0  0  0  0  0  0  0  0
    0.4280   -2.2913    2.4187 C   0  0  0  0  0  0  0  0  0  0  0  0
   -0.8117   -2.1015    1.6333 N   0  0  0  0  0  0  0  0  0  0  0  0
   -1.7782   -1.2789    2.1899 C   0  0  0  0  0  0  0  0  0  0  0  0
   -1.7382   -0.9151    3.3713 O   0  0  0  0  0  0  0  0  0  0  0  0
   -2.7787   -0.8232    1.3233 N   0  0  0  0  0  0  0  0  0  0  0  0
   -3.8964   -0.0787    1.9172 C   0  0  0  0  0  0  0  0  0  0  0  0
   -3.8030    1.4240    1.5946 C   0  0  0  0  0  0  0  0  0  0  0  0
   -3.9135    1.6848    0.0576 N   0  3  0  0  0  0  0  0  0  0  0  0
   -3.0390    2.8828   -0.2961 C   0  0  0  0  0  0  0  0  0  0  0  0
   -5.3568    2.0318   -0.3081 C   0  0  0  0  0  0  0  0  0  0  0  0
   -3.4955    0.4253   -0.7461 C   0  0  0  0  0  0  0  0  0  0  0  0
   -2.4034   -0.4028   -0.0372 C   0  0  0  0  0  0  0  0  0  0  0  0
   -1.2332   -3.3365    0.9552 C   0  0  0  0  0  0  0  0  0  0  0  0
   -0.1048   -3.9513    0.0934 C   0  0  0  0  0  0  0  0  0  0  0  0
    3.2632   -0.1232   -2.7774 N   0  0  0  0  0  0  0  0  0  0  0  0
    2.7339    1.1086   -2.4200 C   0  0  0  0  0  0  0  0  0  0  0  0
    2.6653    1.9669   -3.3107 O   0  0  0  0  0  0  0  0  0  0  0  0
    2.3176    1.3919   -0.9394 C   0  0  0  0  0  0  0  0  0  0  0  0
    0.7873    1.3852   -0.7621 C   0  0  0  0  0  0  0  0  0  0  0  0
    3.1521    0.7866    0.2579 C   0  0  0  0  0  0  0  0  0  0  0  0
    3.1736    2.1911    0.9282 C   0  0  0  0  0  0  0  0  0  0  0  0
    2.3455    2.3692    2.1876 C   0  0  0  0  0  0  0  0  0  0  0  0
    4.4339    3.0813    0.7493 C   0  0  0  0  0  0  0  0  0  0  0  0
    5.2968    3.5682    1.4350 O   0  0  0  0  0  0  0  0  0  0  0  0
    4.1843    3.2134   -0.5849 N   0  0  0  0  0  0  0  0  0  0  0  0
    2.7752    2.8054   -0.4364 C   0  0  0  0  0  0  0  0  0  0  0  0
    0.7018   -2.3436   -3.3793 H   0  0  0  0  0  0  0  0  0  0  0  0
    1.2570   -1.0594   -4.4511 H   0  0  0  0  0  0  0  0  0  0  0  0
    0.5049   -0.6391   -2.9344 H   0  0  0  0  0  0  0  0  0  0  0  0
    3.1797   -2.0348   -3.4196 H   0  0  0  0  0  0  0  0  0  0  0  0
    3.4978   -1.9647   -0.8618 H   0  0  0  0  0  0  0  0  0  0  0  0
    2.6956   -3.2411   -1.7133 H   0  0  0  0  0  0  0  0  0  0  0  0
    0.4276   -1.9347   -1.1437 H   0  0  0  0  0  0  0  0  0  0  0  0
    1.3595   -1.1995    0.0911 H   0  0  0  0  0  0  0  0  0  0  0  0
    2.4971   -2.6226    1.7816 H   0  0  0  0  0  0  0  0  0  0  0  0
    1.6245   -4.0804    2.1337 H   0  0  0  0  0  0  0  0  0  0  0  0
    0.1709   -2.8060    3.3529 H   0  0  0  0  0  0  0  0  0  0  0  0
    0.8110   -1.2943    2.6576 H   0  0  0  0  0  0  0  0  0  0  0  0
   -4.8134   -0.5088    1.4997 H   0  0  0  0  0  0  0  0  0  0  0  0
   -3.9449   -0.2237    3.0020 H   0  0  0  0  0  0  0  0  0  0  0  0
   -4.6030    1.9872    2.0822 H   0  0  0  0  0  0  0  0  0  0  0  0
   -2.8316    1.8161    1.9257 H   0  0  0  0  0  0  0  0  0  0  0  0
   -3.3498    3.7317    0.3238 H   0  0  0  0  0  0  0  0  0  0  0  0
   -1.9939    2.6287   -0.0973 H   0  0  0  0  0  0  0  0  0  0  0  0
   -3.1808    3.1177   -1.3551 H   0  0  0  0  0  0  0  0  0  0  0  0
   -5.6518    2.9366    0.2370 H   0  0  0  0  0  0  0  0  0  0  0  0
   -5.4013    2.2058   -1.3890 H   0  0  0  0  0  0  0  0  0  0  0  0
   -5.9978    1.1857   -0.0349 H   0  0  0  0  0  0  0  0  0  0  0  0
   -4.3900   -0.1983   -0.8697 H   0  0  0  0  0  0  0  0  0  0  0  0
   -3.1789    0.7572   -1.7412 H   0  0  0  0  0  0  0  0  0  0  0  0
   -2.1429   -1.2769   -0.6458 H   0  0  0  0  0  0  0  0  0  0  0  0
   -1.5034    0.2054    0.0541 H   0  0  0  0  0  0  0  0  0  0  0  0
   -1.5010   -4.0502    1.7468 H   0  0  0  0  0  0  0  0  0  0  0  0
   -2.1345   -3.1776    0.3613 H   0  0  0  0  0  0  0  0  0  0  0  0
   -0.4032   -3.9968   -0.9636 H   0  0  0  0  0  0  0  0  0  0  0  0
    0.0017   -5.0061    0.3826 H   0  0  0  0  0  0  0  0  0  0  0  0
    3.6930    0.0024   -3.6857 H   0  0  0  0  0  0  0  0  0  0  0  0
    0.2993    0.6202   -1.3693 H   0  0  0  0  0  0  0  0  0  0  0  0
    0.5130    1.1819    0.2805 H   0  0  0  0  0  0  0  0  0  0  0  0
    0.3522    2.3550   -1.0524 H   0  0  0  0  0  0  0  0  0  0  0  0
    4.1486    0.4025    0.0033 H   0  0  0  0  0  0  0  0  0  0  0  0
    2.6525    0.0164    0.8491 H   0  0  0  0  0  0  0  0  0  0  0  0
    1.3835    1.8407    2.1507 H   0  0  0  0  0  0  0  0  0  0  0  0
    2.1287    3.4212    2.3912 H   0  0  0  0  0  0  0  0  0  0  0  0
    2.8921    1.9554    3.0412 H   0  0  0  0  0  0  0  0  0  0  0  0
    4.5522    4.0554   -1.0128 H   0  0  0  0  0  0  0  0  0  0  0  0
    2.0892    3.6596   -0.4912 H   0  0  0  0  0  0  0  0  0  0  0  0
  2  1  1  0  0  0  0
  3  2  1  0  0  0  0
  4  3  1  0  0  0  0
  5  4  1  0  0  0  0
  6  5  1  0  0  0  0
  7  6  1  0  0  0  0
  8  7  1  0  0  0  0
  9  8  1  0  0  0  0
 10  9  2  0  0  0  0
 11  9  1  0  0  0  0
 12 11  1  0  0  0  0
 13 12  1  0  0  0  0
 14 13  1  0  0  0  0
 15 14  1  0  0  0  0
 16 14  1  0  0  0  0
 17 14  1  0  0  0  0
 18 17  1  0  0  0  0
 18 11  1  0  0  0  0
 19  8  1  0  0  0  0
 20 19  1  0  0  0  0
 20  5  1  0  0  0  0
 21  2  1  0  0  0  0
 22 21  1  0  0  0  0
 23 22  2  0  0  0  0
 24 22  1  0  0  0  0
 25 24  1  0  0  0  0
 26 24  1  0  0  0  0
 27 26  1  0  0  0  0
 28 27  1  0  0  0  0
 29 27  1  0  0  0  0
 30 29  2  0  0  0  0
 31 29  1  0  0  0  0
 32 31  1  0  0  0  0
 32 24  1  0  0  0  0
 32 27  1  0  0  0  0
  1 33  1  0  0  0  0
  1 34  1  0  0  0  0
  1 35  1  0  0  0  0
  2 36  1  0  0  0  0
  3 37  1  0  0  0  0
  3 38  1  0  0  0  0
  4 39  1  0  0  0  0
  4 40  1  0  0  0  0
  6 41  1  0  0  0  0
  6 42  1  0  0  0  0
  7 43  1  0  0  0  0
  7 44  1  0  0  0  0
 12 45  1  0  0  0  0
 12 46  1  0  0  0  0
 13 47  1  0  0  0  0
 13 48  1  0  0  0  0
 15 49  1  0  0  0  0
 15 50  1  0  0  0  0
 15 51  1  0  0  0  0
 16 52  1  0  0  0  0
 16 53  1  0  0  0  0
 16 54  1  0  0  0  0
 17 55  1  0  0  0  0
 17 56  1  0  0  0  0
 18 57  1  0  0  0  0
 18 58  1  0  0  0  0
 19 59  1  0  0  0  0
 19 60  1  0  0  0  0
 20 61  1  0  0  0  0
 20 62  1  0  0  0  0
 21 63  1  0  0  0  0
 25 64  1  0  0  0  0
 25 65  1  0  0  0  0
 25 66  1  0  0  0  0
 26 67  1  0  0  0  0
 26 68  1  0  0  0  0
 28 69  1  0  0  0  0
 28 70  1  0  0  0  0
 28 71  1  0  0  0  0
 31 72  1  0  0  0  0
 32 73  1  0  0  0  0
M  CHG  1  14   1
M  END
>  <energy>
92.655487094861172

$$$$
