OC1(C(Cl)Cl)C2CC3C2CC(Br)C(Br)C(c2ccccc2)OC31
                    3D

 41 44  0  0  0  0  0  0  0  0999 V2000
    1.3737   -3.0533    1.6751 O   0  0  0  0  0  0  0  0  0  0  0  0
    1.6040   -1.6621    1.3829 C   0  0  0  0  0  0  0  0  0  0  0  0
    2.2750   -0.9227    2.5597 C   0  0  0  0  0  0  0  0  0  0  0  0
    1.2521   -0.9914    4.0326 Cl  0  0  0  0  0  0  0  0  0  0  0  0
    3.8463   -1.7065    2.9858 Cl  0  0  0  0  0  0  0  0  0  0  0  0
    2.4494   -1.5954    0.0692 C   0  0  0  0  0  0  0  0  0  0  0  0
    1.5461   -2.2443   -1.0013 C   0  0  0  0  0  0  0  0  0  0  0  0
    0.6485   -1.0239   -0.6459 C   0  0  0  0  0  0  0  0  0  0  0  0
    1.9940   -0.2328   -0.5747 C   0  0  0  0  0  0  0  0  0  0  0  0
    2.1644    0.5691   -1.8329 C   0  0  0  0  0  0  0  0  0  0  0  0
    1.0110    1.6190   -1.9463 C   0  0  0  0  0  0  0  0  0  0  0  0
    1.9306    3.1463   -2.9229 Br  0  0  0  0  0  0  0  0  0  0  0  0
    0.3056    2.1877   -0.6633 C   0  0  0  0  0  0  0  0  0  0  0  0
   -0.9277    3.7082   -1.2251 Br  0  0  0  0  0  0  0  0  0  0  0  0
   -0.5478    1.3410    0.4153 C   0  0  0  0  0  0  0  0  0  0  0  0
   -2.0019    0.9213    0.1698 C   0  0  0  0  0  0  0  0  0  0  0  0
   -2.5271    0.6778   -1.1024 C   0  0  0  0  0  0  0  0  0  0  0  0
   -3.8900    0.3972   -1.2669 C   0  0  0  0  0  0  0  0  0  0  0  0
   -4.7402    0.3704   -0.1609 C   0  0  0  0  0  0  0  0  0  0  0  0
   -4.2396    0.6063    1.1147 C   0  0  0  0  0  0  0  0  0  0  0  0
   -2.8759    0.8617    1.2820 C   0  0  0  0  0  0  0  0  0  0  0  0
    0.1754    0.3881    1.2347 O   0  0  0  0  0  0  0  0  0  0  0  0
    0.2849   -0.9874    0.8244 C   0  0  0  0  0  0  0  0  0  0  0  0
    1.7793   -3.2540    2.5371 H   0  0  0  0  0  0  0  0  0  0  0  0
    2.4959    0.1283    2.3490 H   0  0  0  0  0  0  0  0  0  0  0  0
    3.5071   -1.8576    0.0753 H   0  0  0  0  0  0  0  0  0  0  0  0
    1.1344   -3.2365   -0.7882 H   0  0  0  0  0  0  0  0  0  0  0  0
    1.9539   -2.2659   -2.0165 H   0  0  0  0  0  0  0  0  0  0  0  0
   -0.1052   -0.7742   -1.3894 H   0  0  0  0  0  0  0  0  0  0  0  0
    2.1655    0.5413    0.1839 H   0  0  0  0  0  0  0  0  0  0  0  0
    2.1594   -0.0621   -2.7279 H   0  0  0  0  0  0  0  0  0  0  0  0
    3.1551    1.0421   -1.8023 H   0  0  0  0  0  0  0  0  0  0  0  0
    0.2719    1.2968   -2.6881 H   0  0  0  0  0  0  0  0  0  0  0  0
    1.0720    2.7216   -0.0911 H   0  0  0  0  0  0  0  0  0  0  0  0
   -0.6936    2.1369    1.1623 H   0  0  0  0  0  0  0  0  0  0  0  0
   -1.9081    0.7392   -1.9911 H   0  0  0  0  0  0  0  0  0  0  0  0
   -4.2860    0.2183   -2.2603 H   0  0  0  0  0  0  0  0  0  0  0  0
   -5.7997    0.1655   -0.2975 H   0  0  0  0  0  0  0  0  0  0  0  0
   -4.9003    0.6035    1.9811 H   0  0  0  0  0  0  0  0  0  0  0  0
   -2.4984    1.0461    2.2858 H   0  0  0  0  0  0  0  0  0  0  0  0
   -0.6141   -1.5634    1.0743 H   0  0  0  0  0  0  0  0  0  0  0  0
  2  1  1  0  0  0  0
  3  2  1  0  0  0  0
  4  3  1  0  0  0  0
  5  3  1  0  0  0  0
  6  2  1  0  0  0  0
  7  6  1  0  0  0  0
  8  7  1  0  0  0  0
  9  8  1  0  0  0  0
  9  6  1  0  0  0  0
 10  9  1  0  0  0  0
 11 10  1  0  0  0  0
 12 11  1  0  0  0  0
 13 11  1  0  0  0  0
 14 13  1  0  0  0  0
 15 13  1  0  0  0  0
 16 15  1  0  0  0  0
 17 16  2  0  0  0  0
 18 17  1  0  0  0  0
 19 18  2  0  0  0  0
 20 19  1  0  0  0  0
 21 20  2  0  0  0  0
 21 16  1  0  0  0  0
 22 15  1  0  0  0  0
 23 22  1  0  0  0  0
 23  8  1  0  0  0  0
 23  2  1  0  0  0  0
  1 24  1  0  0  0  0
  3 25  1  0  0  0  0
  6 26  1  0  0  0  0
  7 27  1  0  0  0  0
  7 28  1  0  0  0  0
  8 29  1  0  0  0  0
  9 30  1  0  0  0  0
 10 31  1  0  0  0  0
 10 32  1  0  0  0  0
 11 33  1  0  0  0  0
 13 34  1  0  0  0  0
 15 35  1  0  0  0  0
 17 36  1  0  0  0  0
 18 37  1  0  0  0  0
 19 38  1  0  0  0  0
 20 39  1  0  0  0  0
 21 40  1  0  0  0  0
 23 41  1  0  0  0  0
M  END
>  <energy>
180.26411891238729

$$$$
