CN1CC(C(=O)O)C12C1CC=C3CCC3(C)C3C4=CC(C4)C1C(Cl)(CC2(F)Cl)C3Cl
                    3D

 57 62  0  0  0  0  0  0  0  0999 V2000
   -2.3361   -1.6897    1.8976 C   0  0  0  0  0  0  0  0  0  0  0  0
   -2.5672   -1.2937    0.5178 N   0  0  0  0  0  0  0  0  0  0  0  0
   -3.9927   -1.1815    0.2098 C   0  0  0  0  0  0  0  0  0  0  0  0
   -3.6790    0.0185   -0.7058 C   0  0  0  0  0  0  0  0  0  0  0  0
   -3.7922   -0.3138   -2.2230 C   0  0  0  0  0  0  0  0  0  0  0  0
   -3.1108   -1.0669   -2.9131 O   0  0  0  0  0  0  0  0  0  0  0  0
   -4.8299    0.3273   -2.8205 O   0  0  0  0  0  0  0  0  0  0  0  0
   -2.2813    0.1061    0.0650 C   0  0  0  0  0  0  0  0  0  0  0  0
   -1.0027    0.1625   -0.9045 C   0  0  0  0  0  0  0  0  0  0  0  0
   -0.2059   -1.1713   -0.9937 C   0  0  0  0  0  0  0  0  0  0  0  0
    0.5693   -1.7413    0.1551 C   0  0  0  0  0  0  0  0  0  0  0  0
    1.8245   -1.5513    0.5944 C   0  0  0  0  0  0  0  0  0  0  0  0
    2.5417   -2.2813    1.7272 C   0  0  0  0  0  0  0  0  0  0  0  0
    3.5255   -1.1056    1.7088 C   0  0  0  0  0  0  0  0  0  0  0  0
    3.0197   -0.6251    0.3029 C   0  0  0  0  0  0  0  0  0  0  0  0
    3.9974   -1.1373   -0.7656 C   0  0  0  0  0  0  0  0  0  0  0  0
    2.7754    0.9267    0.2811 C   0  0  0  0  0  0  0  0  0  0  0  0
    2.5058    1.4646   -1.1090 C   0  0  0  0  0  0  0  0  0  0  0  0
    2.0351    2.6870   -1.5157 C   0  0  0  0  0  0  0  0  0  0  0  0
    0.7621    1.8485   -1.9533 C   0  0  0  0  0  0  0  0  0  0  0  0
    1.9219    0.9015   -2.4018 C   0  0  0  0  0  0  0  0  0  0  0  0
   -0.2347    1.5129   -0.7670 C   0  0  0  0  0  0  0  0  0  0  0  0
    0.2094    1.8860    0.6974 C   0  0  0  0  0  0  0  0  0  0  0  0
    0.1997    3.7463    0.7628 Cl  0  0  0  0  0  0  0  0  0  0  0  0
   -0.9089    1.4920    1.7167 C   0  0  0  0  0  0  0  0  0  0  0  0
   -2.2881    1.3058    1.0856 C   0  0  0  0  0  0  0  0  0  0  0  0
   -2.6095    2.4307    0.3849 F   0  0  0  0  0  0  0  0  0  0  0  0
   -3.5135    1.2475    2.3923 Cl  0  0  0  0  0  0  0  0  0  0  0  0
    1.5894    1.3115    1.2454 C   0  0  0  0  0  0  0  0  0  0  0  0
    2.2436    2.2765    2.6484 Cl  0  0  0  0  0  0  0  0  0  0  0  0
   -1.3029   -1.5119    2.2057 H   0  0  0  0  0  0  0  0  0  0  0  0
   -2.4977   -2.7699    1.9804 H   0  0  0  0  0  0  0  0  0  0  0  0
   -2.9909   -1.2388    2.6418 H   0  0  0  0  0  0  0  0  0  0  0  0
   -4.6604   -0.9363    1.0437 H   0  0  0  0  0  0  0  0  0  0  0  0
   -4.4095   -2.0576   -0.2972 H   0  0  0  0  0  0  0  0  0  0  0  0
   -4.3265    0.8802   -0.4808 H   0  0  0  0  0  0  0  0  0  0  0  0
   -4.8436    0.0095   -3.7487 H   0  0  0  0  0  0  0  0  0  0  0  0
   -1.4009    0.2606   -1.9210 H   0  0  0  0  0  0  0  0  0  0  0  0
   -0.9310   -1.9535   -1.2709 H   0  0  0  0  0  0  0  0  0  0  0  0
    0.4190   -1.1857   -1.8809 H   0  0  0  0  0  0  0  0  0  0  0  0
    0.0384   -2.5521    0.6537 H   0  0  0  0  0  0  0  0  0  0  0  0
    2.9861   -3.2471    1.4665 H   0  0  0  0  0  0  0  0  0  0  0  0
    1.9953   -2.3897    2.6712 H   0  0  0  0  0  0  0  0  0  0  0  0
    4.5809   -1.3976    1.7621 H   0  0  0  0  0  0  0  0  0  0  0  0
    3.3697   -0.4074    2.5399 H   0  0  0  0  0  0  0  0  0  0  0  0
    3.5450   -1.1706   -1.7576 H   0  0  0  0  0  0  0  0  0  0  0  0
    4.3346   -2.1592   -0.5529 H   0  0  0  0  0  0  0  0  0  0  0  0
    4.8903   -0.5059   -0.8138 H   0  0  0  0  0  0  0  0  0  0  0  0
    3.7081    1.4043    0.6162 H   0  0  0  0  0  0  0  0  0  0  0  0
    2.0562    3.6890   -1.0843 H   0  0  0  0  0  0  0  0  0  0  0  0
    0.2028    2.2413   -2.8144 H   0  0  0  0  0  0  0  0  0  0  0  0
    2.4216    1.1927   -3.3398 H   0  0  0  0  0  0  0  0  0  0  0  0
    1.7666   -0.1608   -2.4818 H   0  0  0  0  0  0  0  0  0  0  0  0
   -1.0266    2.2422   -0.9971 H   0  0  0  0  0  0  0  0  0  0  0  0
   -0.6484    0.5657    2.2357 H   0  0  0  0  0  0  0  0  0  0  0  0
   -0.9610    2.2500    2.5097 H   0  0  0  0  0  0  0  0  0  0  0  0
    1.3170    0.4156    1.7943 H   0  0  0  0  0  0  0  0  0  0  0  0
  2  1  1  0  0  0  0
  3  2  1  0  0  0  0
  4  3  1  0  0  0  0
  5  4  1  0  0  0  0
  6  5  2  0  0  0  0
  7  5  1  0  0  0  0
  8  4  1  0  0  0  0
  8  2  1  0  0  0  0
  9  8  1  0  0  0  0
 10  9  1  0  0  0  0
 11 10  1  0  0  0  0
 12 11  2  0  0  0  0
 13 12  1  0  0  0  0
 14 13  1  0  0  0  0
 15 14  1  0  0  0  0
 15 12  1  0  0  0  0
 16 15  1  0  0  0  0
 17 15  1  0  0  0  0
 18 17  1  0  0  0  0
 19 18  2  0  0  0  0
 20 19  1  0  0  0  0
 21 20  1  0  0  0  0
 21 18  1  0  0  0  0
 22 20  1  0  0  0  0
 22  9  1  0  0  0  0
 23 22  1  0  0  0  0
 24 23  1  0  0  0  0
 25 23  1  0  0  0  0
 26 25  1  0  0  0  0
 26  8  1  0  0  0  0
 27 26  1  0  0  0  0
 28 26  1  0  0  0  0
 29 23  1  0  0  0  0
 29 17  1  0  0  0  0
 30 29  1  0  0  0  0
  1 31  1  0  0  0  0
  1 32  1  0  0  0  0
  1 33  1  0  0  0  0
  3 34  1  0  0  0  0
  3 35  1  0  0  0  0
  4 36  1  0  0  0  0
  7 37  1  0  0  0  0
  9 38  1  0  0  0  0
 10 39  1  0  0  0  0
 10 40  1  0  0  0  0
 11 41  1  0  0  0  0
 13 42  1  0  0  0  0
 13 43  1  0  0  0  0
 14 44  1  0  0  0  0
 14 45  1  0  0  0  0
 16 46  1  0  0  0  0
 16 47  1  0  0  0  0
 16 48  1  0  0  0  0
 17 49  1  0  0  0  0
 19 50  1  0  0  0  0
 20 51  1  0  0  0  0
 21 52  1  0  0  0  0
 21 53  1  0  0  0  0
 22 54  1  0  0  0  0
 25 55  1  0  0  0  0
 25 56  1  0  0  0  0
 29 57  1  0  0  0  0
M  END
>  <energy>
172.5302514372066

$$$$
