CC1(F)CC2(Cl)C3(Cl)CC45C1C(C#N)(CCCC34)CC(=NS(C)(=O)=O)C52Br
                    3D

 47 51  0  0  0  0  0  0  0  0999 V2000
    1.5567   -3.1826    1.6465 C   0  0  0  0  0  0  0  0  0  0  0  0
    1.8768   -1.8964    0.8970 C   0  0  0  0  0  0  0  0  0  0  0  0
    3.0736   -1.4842    1.4498 F   0  0  0  0  0  0  0  0  0  0  0  0
    2.2332   -2.0507   -0.8018 C   0  0  0  0  0  0  0  0  0  0  0  0
    1.2490   -1.0643   -1.8616 C   0  0  0  0  0  0  0  0  0  0  0  0
    1.9812   -0.8249   -3.4472 Cl  0  0  0  0  0  0  0  0  0  0  0  0
   -0.2631   -1.6261   -1.9318 C   0  0  0  0  0  0  0  0  0  0  0  0
   -0.8565   -2.4362   -3.3463 Cl  0  0  0  0  0  0  0  0  0  0  0  0
   -0.2836   -2.3478   -0.6110 C   0  0  0  0  0  0  0  0  0  0  0  0
    0.1731   -0.7571   -0.1945 C   0  0  0  0  0  0  0  0  0  0  0  0
    0.8347   -0.7472    1.1039 C   0  0  0  0  0  0  0  0  0  0  0  0
   -0.1147    0.1489    1.8910 C   0  0  0  0  0  0  0  0  0  0  0  0
    0.3955    0.3167    3.2739 C   0  0  0  0  0  0  0  0  0  0  0  0
    0.7916    0.4044    4.3589 N   0  0  0  0  0  0  0  0  0  0  0  0
   -1.5853   -0.3882    1.9750 C   0  0  0  0  0  0  0  0  0  0  0  0
   -2.6087    0.0056    0.8851 C   0  0  0  0  0  0  0  0  0  0  0  0
   -2.5314   -0.7504   -0.4418 C   0  0  0  0  0  0  0  0  0  0  0  0
   -1.1674   -0.5692   -1.1073 C   0  0  0  0  0  0  0  0  0  0  0  0
   -0.0180    1.5785    1.0810 C   0  0  0  0  0  0  0  0  0  0  0  0
    0.2962    1.5147   -0.5273 C   0  0  0  0  0  0  0  0  0  0  0  0
    0.0770    2.4505   -1.3921 N   0  0  0  0  0  0  0  0  0  0  0  0
   -0.5507    3.8707   -0.9449 S   0  0  0  0  0  0  0  0  0  0  0  0
   -0.1040    4.8750   -2.3360 C   0  0  0  0  0  0  0  0  0  0  0  0
   -1.9942    3.7377   -0.9101 O   0  0  0  0  0  0  0  0  0  0  0  0
    0.1758    4.3769    0.2031 O   0  0  0  0  0  0  0  0  0  0  0  0
    1.0599    0.1992   -1.0302 C   0  0  0  0  0  0  0  0  0  0  0  0
    2.8853    0.9342   -0.6824 Br  0  0  0  0  0  0  0  0  0  0  0  0
    2.2825   -3.9617    1.3871 H   0  0  0  0  0  0  0  0  0  0  0  0
    0.5517   -3.5683    1.4706 H   0  0  0  0  0  0  0  0  0  0  0  0
    1.6499   -3.0144    2.7257 H   0  0  0  0  0  0  0  0  0  0  0  0
    2.1892   -3.0983   -1.1191 H   0  0  0  0  0  0  0  0  0  0  0  0
    3.2832   -1.7641   -0.9352 H   0  0  0  0  0  0  0  0  0  0  0  0
    0.3403   -3.2401   -0.6198 H   0  0  0  0  0  0  0  0  0  0  0  0
   -1.1970   -2.7467   -0.1638 H   0  0  0  0  0  0  0  0  0  0  0  0
    1.6472   -0.0258    1.2265 H   0  0  0  0  0  0  0  0  0  0  0  0
   -1.5647   -1.4810    2.0825 H   0  0  0  0  0  0  0  0  0  0  0  0
   -2.0209   -0.0214    2.9168 H   0  0  0  0  0  0  0  0  0  0  0  0
   -3.6077   -0.1862    1.2999 H   0  0  0  0  0  0  0  0  0  0  0  0
   -2.5901    1.0830    0.6966 H   0  0  0  0  0  0  0  0  0  0  0  0
   -3.3072   -0.3581   -1.1118 H   0  0  0  0  0  0  0  0  0  0  0  0
   -2.8248   -1.7906   -0.2825 H   0  0  0  0  0  0  0  0  0  0  0  0
   -1.2885    0.3285   -1.7308 H   0  0  0  0  0  0  0  0  0  0  0  0
    0.8254    2.1474    1.4991 H   0  0  0  0  0  0  0  0  0  0  0  0
   -0.9088    2.1812    1.2744 H   0  0  0  0  0  0  0  0  0  0  0  0
    0.9867    4.9053   -2.3962 H   0  0  0  0  0  0  0  0  0  0  0  0
   -0.4972    5.8820   -2.1765 H   0  0  0  0  0  0  0  0  0  0  0  0
   -0.5313    4.4415   -3.2423 H   0  0  0  0  0  0  0  0  0  0  0  0
  2  1  1  0  0  0  0
  3  2  1  0  0  0  0
  4  2  1  0  0  0  0
  5  4  1  0  0  0  0
  6  5  1  0  0  0  0
  7  5  1  0  0  0  0
  8  7  1  0  0  0  0
  9  7  1  0  0  0  0
 10  9  1  0  0  0  0
 11 10  1  0  0  0  0
 11  2  1  0  0  0  0
 12 11  1  0  0  0  0
 13 12  1  0  0  0  0
 14 13  3  0  0  0  0
 15 12  1  0  0  0  0
 16 15  1  0  0  0  0
 17 16  1  0  0  0  0
 18 17  1  0  0  0  0
 18  7  1  0  0  0  0
 18 10  1  0  0  0  0
 19 12  1  0  0  0  0
 20 19  1  0  0  0  0
 21 20  2  0  0  0  0
 22 21  1  0  0  0  0
 23 22  1  0  0  0  0
 24 22  2  0  0  0  0
 25 22  2  0  0  0  0
 26 20  1  0  0  0  0
 26 10  1  0  0  0  0
 26  5  1  0  0  0  0
 27 26  1  0  0  0  0
  1 28  1  0  0  0  0
  1 29  1  0  0  0  0
  1 30  1  0  0  0  0
  4 31  1  0  0  0  0
  4 32  1  0  0  0  0
  9 33  1  0  0  0  0
  9 34  1  0  0  0  0
 11 35  1  0  0  0  0
 15 36  1  0  0  0  0
 15 37  1  0  0  0  0
 16 38  1  0  0  0  0
 16 39  1  0  0  0  0
 17 40  1  0  0  0  0
 17 41  1  0  0  0  0
 18 42  1  0  0  0  0
 19 43  1  0  0  0  0
 19 44  1  0  0  0  0
 23 45  1  0  0  0  0
 23 46  1  0  0  0  0
 23 47  1  0  0  0  0
M  END
>  <energy>
291.0844848657095

$$$$
