CC(N)=NC(=O)C1C2COC2C1NC(=O)NC(=N)N
                    3D

 35 36  0  0  0  0  0  0  0  0999 V2000
    1.1596    3.0542   -0.8962 C   0  0  0  0  0  0  0  0  0  0  0  0
    0.2659    2.5305    0.2122 C   0  0  0  0  0  0  0  0  0  0  0  0
    0.1983    3.2813    1.3502 N   0  0  0  0  0  0  0  0  0  0  0  0
   -0.3487    1.4259   -0.0525 N   0  0  0  0  0  0  0  0  0  0  0  0
   -1.2925    0.8945    0.7998 C   0  0  0  0  0  0  0  0  0  0  0  0
   -1.5578    1.3363    1.9202 O   0  0  0  0  0  0  0  0  0  0  0  0
   -1.9956   -0.3306    0.1690 C   0  0  0  0  0  0  0  0  0  0  0  0
   -1.7250   -0.6878   -1.3149 C   0  0  0  0  0  0  0  0  0  0  0  0
   -2.8986   -1.3254   -2.0482 C   0  0  0  0  0  0  0  0  0  0  0  0
   -2.5133   -2.6464   -1.6050 O   0  0  0  0  0  0  0  0  0  0  0  0
   -1.3639   -2.1068   -0.9175 C   0  0  0  0  0  0  0  0  0  0  0  0
   -1.5368   -1.7492    0.5658 C   0  0  0  0  0  0  0  0  0  0  0  0
   -0.3855   -1.9303    1.4700 N   0  0  0  0  0  0  0  0  0  0  0  0
    0.9628   -1.7625    1.3150 C   0  0  0  0  0  0  0  0  0  0  0  0
    1.7036   -2.2351    2.1751 O   0  0  0  0  0  0  0  0  0  0  0  0
    1.3806   -1.0494    0.2247 N   0  0  0  0  0  0  0  0  0  0  0  0
    2.7050   -0.8134    0.0659 C   0  0  0  0  0  0  0  0  0  0  0  0
    3.4863   -1.7246   -0.4033 N   0  0  0  0  0  0  0  0  0  0  0  0
    3.1743    0.4260    0.3474 N   0  0  0  0  0  0  0  0  0  0  0  0
    1.8582    3.8044   -0.5180 H   0  0  0  0  0  0  0  0  0  0  0  0
    1.7270    2.2185   -1.3224 H   0  0  0  0  0  0  0  0  0  0  0  0
    0.5329    3.5015   -1.6762 H   0  0  0  0  0  0  0  0  0  0  0  0
    0.4258    4.2715    1.3093 H   0  0  0  0  0  0  0  0  0  0  0  0
   -0.5271    3.0260    2.0221 H   0  0  0  0  0  0  0  0  0  0  0  0
   -3.0779   -0.2121    0.3575 H   0  0  0  0  0  0  0  0  0  0  0  0
   -0.9850   -0.1444   -1.9016 H   0  0  0  0  0  0  0  0  0  0  0  0
   -3.8993   -1.0510   -1.7063 H   0  0  0  0  0  0  0  0  0  0  0  0
   -2.8562   -1.2499   -3.1382 H   0  0  0  0  0  0  0  0  0  0  0  0
   -0.4167   -2.4924   -1.2884 H   0  0  0  0  0  0  0  0  0  0  0  0
   -2.3820   -2.3025    1.0105 H   0  0  0  0  0  0  0  0  0  0  0  0
   -0.5430   -2.4760    2.3139 H   0  0  0  0  0  0  0  0  0  0  0  0
    0.8565   -0.1878    0.1558 H   0  0  0  0  0  0  0  0  0  0  0  0
    2.9419   -2.5759   -0.5870 H   0  0  0  0  0  0  0  0  0  0  0  0
    4.1844    0.3997    0.4502 H   0  0  0  0  0  0  0  0  0  0  0  0
    2.7418    0.8833    1.1410 H   0  0  0  0  0  0  0  0  0  0  0  0
  2  1  1  0  0  0  0
  3  2  1  0  0  0  0
  4  2  2  0  0  0  0
  5  4  1  0  0  0  0
  6  5  2  0  0  0  0
  7  5  1  0  0  0  0
  8  7  1  0  0  0  0
  9  8  1  0  0  0  0
 10  9  1  0  0  0  0
 11 10  1  0  0  0  0
 11  8  1  0  0  0  0
 12 11  1  0  0  0  0
 12  7  1  0  0  0  0
 13 12  1  0  0  0  0
 14 13  1  0  0  0  0
 15 14  2  0  0  0  0
 16 14  1  0  0  0  0
 17 16  1  0  0  0  0
 18 17  2  0  0  0  0
 19 17  1  0  0  0  0
  1 20  1  0  0  0  0
  1 21  1  0  0  0  0
  1 22  1  0  0  0  0
  3 23  1  0  0  0  0
  3 24  1  0  0  0  0
  7 25  1  0  0  0  0
  8 26  1  0  0  0  0
  9 27  1  0  0  0  0
  9 28  1  0  0  0  0
 11 29  1  0  0  0  0
 12 30  1  0  0  0  0
 13 31  1  0  0  0  0
 16 32  1  0  0  0  0
 18 33  1  0  0  0  0
 19 34  1  0  0  0  0
 19 35  1  0  0  0  0
M  END
>  <energy>
-176.49239454434112

$$$$
