O=C(CNC(=O)N1COC2OCCOC21)OC1CC2CC3CN(C1)C23
                    3D

 48 52  0  0  0  0  0  0  0  0999 V2000
    1.8773   -3.5980    0.6765 O   0  0  0  0  0  0  0  0  0  0  0  0
    0.9668   -2.8042    0.4727 C   0  0  0  0  0  0  0  0  0  0  0  0
   -0.4747   -3.2190    0.2100 C   0  0  0  0  0  0  0  0  0  0  0  0
   -1.3599   -2.0941   -0.0366 N   0  0  0  0  0  0  0  0  0  0  0  0
   -2.7144   -2.2491   -0.0499 C   0  0  0  0  0  0  0  0  0  0  0  0
   -3.2548   -3.3471    0.0320 O   0  0  0  0  0  0  0  0  0  0  0  0
   -3.4165   -1.0839   -0.1596 N   0  0  0  0  0  0  0  0  0  0  0  0
   -4.8405   -1.1066   -0.3584 C   0  0  0  0  0  0  0  0  0  0  0  0
   -5.2012    0.1566   -0.9448 O   0  0  0  0  0  0  0  0  0  0  0  0
   -4.1783    1.0753   -0.5332 C   0  0  0  0  0  0  0  0  0  0  0  0
   -4.5173    1.5960    0.7571 O   0  0  0  0  0  0  0  0  0  0  0  0
   -3.3713    2.1592    1.3973 C   0  0  0  0  0  0  0  0  0  0  0  0
   -2.3004    1.0885    1.5709 C   0  0  0  0  0  0  0  0  0  0  0  0
   -1.8409    0.6306    0.2938 O   0  0  0  0  0  0  0  0  0  0  0  0
   -2.9124    0.2019   -0.5477 C   0  0  0  0  0  0  0  0  0  0  0  0
    1.1068   -1.4449    0.4845 O   0  0  0  0  0  0  0  0  0  0  0  0
    2.4408   -0.9543    0.7346 C   0  0  0  0  0  0  0  0  0  0  0  0
    2.3104    0.5072    1.3027 C   0  0  0  0  0  0  0  0  0  0  0  0
    3.1290    1.3698    0.3777 C   0  0  0  0  0  0  0  0  0  0  0  0
    3.3472    2.7840   -0.2122 C   0  0  0  0  0  0  0  0  0  0  0  0
    3.3175    2.1162   -1.6328 C   0  0  0  0  0  0  0  0  0  0  0  0
    4.2053    0.8696   -1.9526 C   0  0  0  0  0  0  0  0  0  0  0  0
    3.0431   -0.0213   -1.6301 N   0  0  0  0  0  0  0  0  0  0  0  0
    3.3186   -1.0549   -0.5892 C   0  0  0  0  0  0  0  0  0  0  0  0
    2.4026    1.1043   -0.9795 C   0  0  0  0  0  0  0  0  0  0  0  0
   -0.8463   -3.7654    1.0835 H   0  0  0  0  0  0  0  0  0  0  0  0
   -0.5051   -3.8659   -0.6719 H   0  0  0  0  0  0  0  0  0  0  0  0
   -1.0174   -1.1744    0.2327 H   0  0  0  0  0  0  0  0  0  0  0  0
   -5.1484   -1.9140   -1.0285 H   0  0  0  0  0  0  0  0  0  0  0  0
   -5.3407   -1.2180    0.6099 H   0  0  0  0  0  0  0  0  0  0  0  0
   -4.1181    1.9093   -1.2402 H   0  0  0  0  0  0  0  0  0  0  0  0
   -3.6823    2.5477    2.3722 H   0  0  0  0  0  0  0  0  0  0  0  0
   -3.0002    2.9928    0.7898 H   0  0  0  0  0  0  0  0  0  0  0  0
   -1.4355    1.4990    2.1026 H   0  0  0  0  0  0  0  0  0  0  0  0
   -2.6784    0.2322    2.1384 H   0  0  0  0  0  0  0  0  0  0  0  0
   -2.5297    0.0992   -1.5705 H   0  0  0  0  0  0  0  0  0  0  0  0
    2.9031   -1.5702    1.5163 H   0  0  0  0  0  0  0  0  0  0  0  0
    1.2642    0.8322    1.3549 H   0  0  0  0  0  0  0  0  0  0  0  0
    2.7139    0.5500    2.3201 H   0  0  0  0  0  0  0  0  0  0  0  0
    4.1579    1.0090    0.5569 H   0  0  0  0  0  0  0  0  0  0  0  0
    2.5279    3.4881   -0.0278 H   0  0  0  0  0  0  0  0  0  0  0  0
    4.2947    3.2637    0.0520 H   0  0  0  0  0  0  0  0  0  0  0  0
    2.8987    2.6739   -2.4715 H   0  0  0  0  0  0  0  0  0  0  0  0
    5.1138    0.7532   -1.3522 H   0  0  0  0  0  0  0  0  0  0  0  0
    4.5067    0.8059   -3.0039 H   0  0  0  0  0  0  0  0  0  0  0  0
    4.3779   -1.0534   -0.3020 H   0  0  0  0  0  0  0  0  0  0  0  0
    3.1366   -2.0242   -1.0669 H   0  0  0  0  0  0  0  0  0  0  0  0
    1.3238    1.2472   -1.0772 H   0  0  0  0  0  0  0  0  0  0  0  0
  2  1  2  0  0  0  0
  3  2  1  0  0  0  0
  4  3  1  0  0  0  0
  5  4  1  0  0  0  0
  6  5  2  0  0  0  0
  7  5  1  0  0  0  0
  8  7  1  0  0  0  0
  9  8  1  0  0  0  0
 10  9  1  0  0  0  0
 11 10  1  0  0  0  0
 12 11  1  0  0  0  0
 13 12  1  0  0  0  0
 14 13  1  0  0  0  0
 15 14  1  0  0  0  0
 15 10  1  0  0  0  0
 15  7  1  0  0  0  0
 16  2  1  0  0  0  0
 17 16  1  0  0  0  0
 18 17  1  0  0  0  0
 19 18  1  0  0  0  0
 20 19  1  0  0  0  0
 21 20  1  0  0  0  0
 22 21  1  0  0  0  0
 23 22  1  0  0  0  0
 24 23  1  0  0  0  0
 24 17  1  0  0  0  0
 25 23  1  0  0  0  0
 25 19  1  0  0  0  0
 25 21  1  0  0  0  0
  3 26  1  0  0  0  0
  3 27  1  0  0  0  0
  4 28  1  0  0  0  0
  8 29  1  0  0  0  0
  8 30  1  0  0  0  0
 10 31  1  0  0  0  0
 12 32  1  0  0  0  0
 12 33  1  0  0  0  0
 13 34  1  0  0  0  0
 13 35  1  0  0  0  0
 15 36  1  0  0  0  0
 17 37  1  0  0  0  0
 18 38  1  0  0  0  0
 18 39  1  0  0  0  0
 19 40  1  0  0  0  0
 20 41  1  0  0  0  0
 20 42  1  0  0  0  0
 21 43  1  0  0  0  0
 22 44  1  0  0  0  0
 22 45  1  0  0  0  0
 24 46  1  0  0  0  0
 24 47  1  0  0  0  0
 25 48  1  0  0  0  0
M  END
>  <energy>
48.251823529750581

$$$$
