ClC(Cl)=C(C1CCC1)C1CC2CNC21
                    3D

 29 31  0  0  0  0  0  0  0  0999 V2000
   -2.1718    3.5876   -0.0970 Cl  0  0  0  0  0  0  0  0  0  0  0  0
   -0.6483    2.7603    0.0830 C   0  0  0  0  0  0  0  0  0  0  0  0
    0.6755    3.8530    0.3922 Cl  0  0  0  0  0  0  0  0  0  0  0  0
   -0.5074    1.4136   -0.0161 C   0  0  0  0  0  0  0  0  0  0  0  0
   -1.7140    0.5939   -0.3866 C   0  0  0  0  0  0  0  0  0  0  0  0
   -1.5989   -0.7423   -1.1532 C   0  0  0  0  0  0  0  0  0  0  0  0
   -2.7632   -1.2651   -0.2822 C   0  0  0  0  0  0  0  0  0  0  0  0
   -2.3995   -0.1867    0.7595 C   0  0  0  0  0  0  0  0  0  0  0  0
    0.8583    0.8189    0.2408 C   0  0  0  0  0  0  0  0  0  0  0  0
    1.6604    0.4585   -1.0345 C   0  0  0  0  0  0  0  0  0  0  0  0
    1.9998   -0.9103   -0.4317 C   0  0  0  0  0  0  0  0  0  0  0  0
    3.1266   -0.9080    0.5988 C   0  0  0  0  0  0  0  0  0  0  0  0
    2.1459   -0.7284    1.6799 N   0  0  0  0  0  0  0  0  0  0  0  0
    1.0372   -0.6409    0.7218 C   0  0  0  0  0  0  0  0  0  0  0  0
   -2.4495    1.1943   -0.9423 H   0  0  0  0  0  0  0  0  0  0  0  0
   -0.6913   -1.3344   -1.0512 H   0  0  0  0  0  0  0  0  0  0  0  0
   -1.8251   -0.6787   -2.2232 H   0  0  0  0  0  0  0  0  0  0  0  0
   -3.7504   -1.1206   -0.7358 H   0  0  0  0  0  0  0  0  0  0  0  0
   -2.6747   -2.3005    0.0572 H   0  0  0  0  0  0  0  0  0  0  0  0
   -3.2525    0.3179    1.2226 H   0  0  0  0  0  0  0  0  0  0  0  0
   -1.7423   -0.5443    1.5582 H   0  0  0  0  0  0  0  0  0  0  0  0
    1.4403    1.4717    0.9075 H   0  0  0  0  0  0  0  0  0  0  0  0
    1.0663    0.3870   -1.9526 H   0  0  0  0  0  0  0  0  0  0  0  0
    2.5173    1.1082   -1.2399 H   0  0  0  0  0  0  0  0  0  0  0  0
    1.8405   -1.8060   -1.0325 H   0  0  0  0  0  0  0  0  0  0  0  0
    3.8500   -0.0903    0.5111 H   0  0  0  0  0  0  0  0  0  0  0  0
    3.6792   -1.8518    0.6613 H   0  0  0  0  0  0  0  0  0  0  0  0
    2.0825   -1.5304    2.3070 H   0  0  0  0  0  0  0  0  0  0  0  0
    0.2091   -1.3263    0.8780 H   0  0  0  0  0  0  0  0  0  0  0  0
  2  1  1  0  0  0  0
  3  2  1  0  0  0  0
  4  2  2  0  0  0  0
  5  4  1  0  0  0  0
  6  5  1  0  0  0  0
  7  6  1  0  0  0  0
  8  7  1  0  0  0  0
  8  5  1  0  0  0  0
  9  4  1  0  0  0  0
 10  9  1  0  0  0  0
 11 10  1  0  0  0  0
 12 11  1  0  0  0  0
 13 12  1  0  0  0  0
 14 13  1  0  0  0  0
 14 11  1  0  0  0  0
 14  9  1  0  0  0  0
  5 15  1  0  0  0  0
  6 16  1  0  0  0  0
  6 17  1  0  0  0  0
  7 18  1  0  0  0  0
  7 19  1  0  0  0  0
  8 20  1  0  0  0  0
  8 21  1  0  0  0  0
  9 22  1  0  0  0  0
 10 23  1  0  0  0  0
 10 24  1  0  0  0  0
 11 25  1  0  0  0  0
 12 26  1  0  0  0  0
 12 27  1  0  0  0  0
 13 28  1  0  0  0  0
 14 29  1  0  0  0  0
M  END
>  <energy>
58.350731706867904

$$$$
