CC#CC[N+]1(C)C2CC1(C#CC#CC1=CC=C1C[n+]1n[nH][nH]1)C2(Br)C(O)C(C)C
                    3D

 55 58  0  0  0  0  0  0  0  0999 V2000
   -2.2002   -4.1802    2.8177 C   0  0  0  0  0  0  0  0  0  0  0  0
   -2.8771   -3.2140    1.9464 C   0  0  0  0  0  0  0  0  0  0  0  0
   -3.4465   -2.4467    1.2204 C   0  0  0  0  0  0  0  0  0  0  0  0
   -4.1180   -1.5490    0.2699 C   0  0  0  0  0  0  0  0  0  0  0  0
   -3.0944   -1.0296   -0.7276 N   0  3  0  0  0  0  0  0  0  0  0  0
   -2.6609   -2.1311   -1.6353 C   0  0  0  0  0  0  0  0  0  0  0  0
   -3.5110    0.2049   -1.4578 C   0  0  0  0  0  0  0  0  0  0  0  0
   -3.2591    0.9616   -0.0409 C   0  0  0  0  0  0  0  0  0  0  0  0
   -2.0872   -0.0307   -0.2208 C   0  0  0  0  0  0  0  0  0  0  0  0
   -1.0225   -0.3471    0.6393 C   0  0  0  0  0  0  0  0  0  0  0  0
   -0.0291   -0.5007    1.2965 C   0  0  0  0  0  0  0  0  0  0  0  0
    1.1853   -0.5011    1.9345 C   0  0  0  0  0  0  0  0  0  0  0  0
    2.2782   -0.3872    2.4186 C   0  0  0  0  0  0  0  0  0  0  0  0
    3.5734   -0.1561    2.9278 C   0  0  0  0  0  0  0  0  0  0  0  0
    4.2243   -0.0075    4.0877 C   0  0  0  0  0  0  0  0  0  0  0  0
    5.4397    0.2161    3.3568 C   0  0  0  0  0  0  0  0  0  0  0  0
    4.7789    0.0408    2.1910 C   0  0  0  0  0  0  0  0  0  0  0  0
    5.1363    0.0587    0.7273 C   0  0  0  0  0  0  0  0  0  0  0  0
    4.8717   -1.2330    0.1041 N   0  3  0  0  0  0  0  0  0  0  0  0
    5.7001   -2.2836    0.0362 N   0  0  0  0  0  0  0  0  0  0  0  0
    4.8899   -2.7658   -0.9106 N   0  0  0  0  0  0  0  0  0  0  0  0
    4.3096   -1.5140   -1.0001 N   0  0  0  0  0  0  0  0  0  0  0  0
   -1.9459    0.6511   -1.6900 C   0  0  0  0  0  0  0  0  0  0  0  0
   -0.6469   -0.3236   -2.8899 Br  0  0  0  0  0  0  0  0  0  0  0  0
   -1.8412    2.1476   -2.1704 C   0  0  0  0  0  0  0  0  0  0  0  0
   -3.1689    2.6834   -2.2894 O   0  0  0  0  0  0  0  0  0  0  0  0
   -0.9644    3.1346   -1.3513 C   0  0  0  0  0  0  0  0  0  0  0  0
    0.2957    2.5559   -0.7177 C   0  0  0  0  0  0  0  0  0  0  0  0
   -0.5526    4.3237   -2.2486 C   0  0  0  0  0  0  0  0  0  0  0  0
   -2.2428   -5.1877    2.3919 H   0  0  0  0  0  0  0  0  0  0  0  0
   -2.6755   -4.2065    3.8029 H   0  0  0  0  0  0  0  0  0  0  0  0
   -1.1459   -3.9185    2.9507 H   0  0  0  0  0  0  0  0  0  0  0  0
   -4.8660   -2.0985   -0.3141 H   0  0  0  0  0  0  0  0  0  0  0  0
   -4.6936   -0.7816    0.7869 H   0  0  0  0  0  0  0  0  0  0  0  0
   -3.2830   -3.0159   -1.4556 H   0  0  0  0  0  0  0  0  0  0  0  0
   -1.6304   -2.4258   -1.4161 H   0  0  0  0  0  0  0  0  0  0  0  0
   -2.8470   -1.8614   -2.6757 H   0  0  0  0  0  0  0  0  0  0  0  0
   -4.3590    0.2911   -2.1202 H   0  0  0  0  0  0  0  0  0  0  0  0
   -3.0407    2.0278   -0.0325 H   0  0  0  0  0  0  0  0  0  0  0  0
   -3.9375    0.8485    0.8030 H   0  0  0  0  0  0  0  0  0  0  0  0
    3.9706   -0.0066    5.1421 H   0  0  0  0  0  0  0  0  0  0  0  0
    6.4645    0.4312    3.6548 H   0  0  0  0  0  0  0  0  0  0  0  0
    4.5447    0.8208    0.2020 H   0  0  0  0  0  0  0  0  0  0  0  0
    6.1964    0.2919    0.5818 H   0  0  0  0  0  0  0  0  0  0  0  0
    5.3946   -3.1050   -1.7281 H   0  0  0  0  0  0  0  0  0  0  0  0
    4.5260   -0.9690   -1.8412 H   0  0  0  0  0  0  0  0  0  0  0  0
   -1.4750    2.1575   -3.2042 H   0  0  0  0  0  0  0  0  0  0  0  0
   -3.1128    3.6152   -2.5805 H   0  0  0  0  0  0  0  0  0  0  0  0
   -1.5661    3.5690   -0.5391 H   0  0  0  0  0  0  0  0  0  0  0  0
    0.9811    3.3487   -0.3949 H   0  0  0  0  0  0  0  0  0  0  0  0
    0.0345    2.0110    0.1865 H   0  0  0  0  0  0  0  0  0  0  0  0
    0.8446    1.8995   -1.3957 H   0  0  0  0  0  0  0  0  0  0  0  0
   -0.0034    5.0752   -1.6758 H   0  0  0  0  0  0  0  0  0  0  0  0
   -1.4253    4.8219   -2.6802 H   0  0  0  0  0  0  0  0  0  0  0  0
    0.0900    3.9898   -3.0730 H   0  0  0  0  0  0  0  0  0  0  0  0
  2  1  1  0  0  0  0
  3  2  3  0  0  0  0
  4  3  1  0  0  0  0
  5  4  1  0  0  0  0
  6  5  1  0  0  0  0
  7  5  1  0  0  0  0
  8  7  1  0  0  0  0
  9  8  1  0  0  0  0
  9  5  1  0  0  0  0
 10  9  1  0  0  0  0
 11 10  3  0  0  0  0
 12 11  1  0  0  0  0
 13 12  3  0  0  0  0
 14 13  1  0  0  0  0
 15 14  2  0  0  0  0
 16 15  1  0  0  0  0
 17 16  2  0  0  0  0
 17 14  1  0  0  0  0
 18 17  1  0  0  0  0
 19 18  1  0  0  0  0
 20 19  2  0  0  0  0
 21 20  1  0  0  0  0
 22 21  1  0  0  0  0
 22 19  1  0  0  0  0
 23  9  1  0  0  0  0
 23  7  1  0  0  0  0
 24 23  1  0  0  0  0
 25 23  1  0  0  0  0
 26 25  1  0  0  0  0
 27 25  1  0  0  0  0
 28 27  1  0  0  0  0
 29 27  1  0  0  0  0
  1 30  1  0  0  0  0
  1 31  1  0  0  0  0
  1 32  1  0  0  0  0
  4 33  1  0  0  0  0
  4 34  1  0  0  0  0
  6 35  1  0  0  0  0
  6 36  1  0  0  0  0
  6 37  1  0  0  0  0
  7 38  1  0  0  0  0
  8 39  1  0  0  0  0
  8 40  1  0  0  0  0
 15 41  1  0  0  0  0
 16 42  1  0  0  0  0
 18 43  1  0  0  0  0
 18 44  1  0  0  0  0
 21 45  1  0  0  0  0
 22 46  1  0  0  0  0
 25 47  1  0  0  0  0
 26 48  1  0  0  0  0
 27 49  1  0  0  0  0
 28 50  1  0  0  0  0
 28 51  1  0  0  0  0
 28 52  1  0  0  0  0
 29 53  1  0  0  0  0
 29 54  1  0  0  0  0
 29 55  1  0  0  0  0
M  CHG  2   5   1  19   1
M  END
>  <energy>
212.68246849364476

$$$$
