CC1CC2(O)C[N+]3(C)CC[N+](CCCC(=O)O)(CC3)C1C1C(C)(CCO)C2CC[N+]1(C)C
                    3D

 80 83  0  0  0  0  0  0  0  0999 V2000
   -1.7259    0.5254    2.6423 C   0  0  0  0  0  0  0  0  0  0  0  0
   -0.7087   -0.0553    1.6513 C   0  0  0  0  0  0  0  0  0  0  0  0
   -0.8218   -1.6005    1.7132 C   0  0  0  0  0  0  0  0  0  0  0  0
   -0.4242   -2.4260    0.4581 C   0  0  0  0  0  0  0  0  0  0  0  0
   -0.2140   -3.7603    0.9968 O   0  0  0  0  0  0  0  0  0  0  0  0
   -1.6623   -2.6599   -0.5567 C   0  0  0  0  0  0  0  0  0  0  0  0
   -2.6756   -1.5413   -1.1204 N   0  3  0  0  0  0  0  0  0  0  0  0
   -3.8506   -2.4865   -1.7149 C   0  0  0  0  0  0  0  0  0  0  0  0
   -2.2608   -0.7066   -2.3462 C   0  0  0  0  0  0  0  0  0  0  0  0
   -1.5238    0.6503   -2.0837 C   0  0  0  0  0  0  0  0  0  0  0  0
   -1.4524    1.1576   -0.5758 N   0  3  0  0  0  0  0  0  0  0  0  0
   -1.2599    2.7160   -0.5560 C   0  0  0  0  0  0  0  0  0  0  0  0
   -1.2962    3.3466    0.8311 C   0  0  0  0  0  0  0  0  0  0  0  0
   -0.9804    4.8439    0.7907 C   0  0  0  0  0  0  0  0  0  0  0  0
    0.4517    5.1045    1.1528 C   0  0  0  0  0  0  0  0  0  0  0  0
    0.8566    5.7906    2.0739 O   0  0  0  0  0  0  0  0  0  0  0  0
    1.3303    4.4806    0.3419 O   0  0  0  0  0  0  0  0  0  0  0  0
   -2.9471    0.8651   -0.1070 C   0  0  0  0  0  0  0  0  0  0  0  0
   -3.3875   -0.6380   -0.0901 C   0  0  0  0  0  0  0  0  0  0  0  0
   -0.3520    0.3792    0.2010 C   0  0  0  0  0  0  0  0  0  0  0  0
    1.3899    0.4062    0.0533 C   0  0  0  0  0  0  0  0  0  0  0  0
    1.9893   -1.0844    0.5771 C   0  0  0  0  0  0  0  0  0  0  0  0
    3.4428   -1.5110    0.1268 C   0  0  0  0  0  0  0  0  0  0  0  0
    2.1980   -1.1536    2.1542 C   0  0  0  0  0  0  0  0  0  0  0  0
    2.6656   -2.4819    2.7806 C   0  0  0  0  0  0  0  0  0  0  0  0
    4.0798   -2.5302    2.7412 O   0  0  0  0  0  0  0  0  0  0  0  0
    1.0567   -2.1172   -0.1588 C   0  0  0  0  0  0  0  0  0  0  0  0
    1.1046   -1.8040   -1.7092 C   0  0  0  0  0  0  0  0  0  0  0  0
    1.8924   -0.5898   -2.3023 C   0  0  0  0  0  0  0  0  0  0  0  0
    2.0269    0.6545   -1.3839 N   0  3  0  0  0  0  0  0  0  0  0  0
    3.6154    0.9928   -1.1556 C   0  0  0  0  0  0  0  0  0  0  0  0
    1.6745    1.9456   -2.1378 C   0  0  0  0  0  0  0  0  0  0  0  0
   -1.4725    0.1661    3.6507 H   0  0  0  0  0  0  0  0  0  0  0  0
   -1.6999    1.6081    2.7130 H   0  0  0  0  0  0  0  0  0  0  0  0
   -2.7504    0.1932    2.4841 H   0  0  0  0  0  0  0  0  0  0  0  0
    0.1753    0.2992    2.1758 H   0  0  0  0  0  0  0  0  0  0  0  0
   -0.2802   -1.9712    2.5926 H   0  0  0  0  0  0  0  0  0  0  0  0
   -1.8420   -1.8912    1.9843 H   0  0  0  0  0  0  0  0  0  0  0  0
   -0.8723   -3.9990    1.6788 H   0  0  0  0  0  0  0  0  0  0  0  0
   -1.3195   -3.2242   -1.4317 H   0  0  0  0  0  0  0  0  0  0  0  0
   -2.3337   -3.3395   -0.0147 H   0  0  0  0  0  0  0  0  0  0  0  0
   -4.2742   -3.0554   -0.8827 H   0  0  0  0  0  0  0  0  0  0  0  0
   -4.6115   -1.8423   -2.1648 H   0  0  0  0  0  0  0  0  0  0  0  0
   -3.3949   -3.1364   -2.4672 H   0  0  0  0  0  0  0  0  0  0  0  0
   -1.7031   -1.3561   -3.0279 H   0  0  0  0  0  0  0  0  0  0  0  0
   -3.1868   -0.4400   -2.8706 H   0  0  0  0  0  0  0  0  0  0  0  0
   -0.5136    0.5325   -2.4365 H   0  0  0  0  0  0  0  0  0  0  0  0
   -2.0039    1.4468   -2.6640 H   0  0  0  0  0  0  0  0  0  0  0  0
   -0.3130    2.9296   -1.0343 H   0  0  0  0  0  0  0  0  0  0  0  0
   -2.0580    3.1355   -1.1812 H   0  0  0  0  0  0  0  0  0  0  0  0
   -0.5806    2.8470    1.4876 H   0  0  0  0  0  0  0  0  0  0  0  0
   -2.2986    3.2402    1.2554 H   0  0  0  0  0  0  0  0  0  0  0  0
   -1.1984    5.2977   -0.1814 H   0  0  0  0  0  0  0  0  0  0  0  0
   -1.5924    5.3643    1.5382 H   0  0  0  0  0  0  0  0  0  0  0  0
    2.1744    4.8855    0.6704 H   0  0  0  0  0  0  0  0  0  0  0  0
   -3.1330    1.3560    0.8433 H   0  0  0  0  0  0  0  0  0  0  0  0
   -3.5795    1.3973   -0.8299 H   0  0  0  0  0  0  0  0  0  0  0  0
   -4.4597   -0.6467   -0.3211 H   0  0  0  0  0  0  0  0  0  0  0  0
   -3.3045   -1.1174    0.8792 H   0  0  0  0  0  0  0  0  0  0  0  0
   -0.4880   -0.4900   -0.3936 H   0  0  0  0  0  0  0  0  0  0  0  0
    1.7543    1.2151    0.6944 H   0  0  0  0  0  0  0  0  0  0  0  0
    3.6923   -2.5136    0.4887 H   0  0  0  0  0  0  0  0  0  0  0  0
    4.2123   -0.8405    0.5208 H   0  0  0  0  0  0  0  0  0  0  0  0
    3.5903   -1.6539   -0.9382 H   0  0  0  0  0  0  0  0  0  0  0  0
    1.3495   -0.8734    2.7500 H   0  0  0  0  0  0  0  0  0  0  0  0
    2.9402   -0.3810    2.4023 H   0  0  0  0  0  0  0  0  0  0  0  0
    2.2427   -3.3538    2.2747 H   0  0  0  0  0  0  0  0  0  0  0  0
    2.3678   -2.5215    3.8344 H   0  0  0  0  0  0  0  0  0  0  0  0
    4.3724   -3.3112    3.2492 H   0  0  0  0  0  0  0  0  0  0  0  0
    1.5752   -3.0849   -0.0827 H   0  0  0  0  0  0  0  0  0  0  0  0
    0.1007   -1.7430   -2.1076 H   0  0  0  0  0  0  0  0  0  0  0  0
    1.5049   -2.6995   -2.2047 H   0  0  0  0  0  0  0  0  0  0  0  0
    1.3763   -0.2593   -3.2131 H   0  0  0  0  0  0  0  0  0  0  0  0
    2.8869   -0.8862   -2.6508 H   0  0  0  0  0  0  0  0  0  0  0  0
    4.2277    0.1625   -1.4968 H   0  0  0  0  0  0  0  0  0  0  0  0
    3.9079    1.8612   -1.7560 H   0  0  0  0  0  0  0  0  0  0  0  0
    3.7586    1.2378   -0.1022 H   0  0  0  0  0  0  0  0  0  0  0  0
    1.8641    2.7933   -1.4782 H   0  0  0  0  0  0  0  0  0  0  0  0
    2.3027    2.0069   -3.0352 H   0  0  0  0  0  0  0  0  0  0  0  0
    0.6562    1.9430   -2.4886 H   0  0  0  0  0  0  0  0  0  0  0  0
  2  1  1  0  0  0  0
  3  2  1  0  0  0  0
  4  3  1  0  0  0  0
  5  4  1  0  0  0  0
  6  4  1  0  0  0  0
  7  6  1  0  0  0  0
  8  7  1  0  0  0  0
  9  7  1  0  0  0  0
 10  9  1  0  0  0  0
 11 10  1  0  0  0  0
 12 11  1  0  0  0  0
 13 12  1  0  0  0  0
 14 13  1  0  0  0  0
 15 14  1  0  0  0  0
 16 15  2  0  0  0  0
 17 15  1  0  0  0  0
 18 11  1  0  0  0  0
 19 18  1  0  0  0  0
 19  7  1  0  0  0  0
 20 11  1  0  0  0  0
 20  2  1  0  0  0  0
 21 20  1  0  0  0  0
 22 21  1  0  0  0  0
 23 22  1  0  0  0  0
 24 22  1  0  0  0  0
 25 24  1  0  0  0  0
 26 25  1  0  0  0  0
 27 22  1  0  0  0  0
 27  4  1  0  0  0  0
 28 27  1  0  0  0  0
 29 28  1  0  0  0  0
 30 29  1  0  0  0  0
 30 21  1  0  0  0  0
 31 30  1  0  0  0  0
 32 30  1  0  0  0  0
  1 33  1  0  0  0  0
  1 34  1  0  0  0  0
  1 35  1  0  0  0  0
  2 36  1  0  0  0  0
  3 37  1  0  0  0  0
  3 38  1  0  0  0  0
  5 39  1  0  0  0  0
  6 40  1  0  0  0  0
  6 41  1  0  0  0  0
  8 42  1  0  0  0  0
  8 43  1  0  0  0  0
  8 44  1  0  0  0  0
  9 45  1  0  0  0  0
  9 46  1  0  0  0  0
 10 47  1  0  0  0  0
 10 48  1  0  0  0  0
 12 49  1  0  0  0  0
 12 50  1  0  0  0  0
 13 51  1  0  0  0  0
 13 52  1  0  0  0  0
 14 53  1  0  0  0  0
 14 54  1  0  0  0  0
 17 55  1  0  0  0  0
 18 56  1  0  0  0  0
 18 57  1  0  0  0  0
 19 58  1  0  0  0  0
 19 59  1  0  0  0  0
 20 60  1  0  0  0  0
 21 61  1  0  0  0  0
 23 62  1  0  0  0  0
 23 63  1  0  0  0  0
 23 64  1  0  0  0  0
 24 65  1  0  0  0  0
 24 66  1  0  0  0  0
 25 67  1  0  0  0  0
 25 68  1  0  0  0  0
 26 69  1  0  0  0  0
 27 70  1  0  0  0  0
 28 71  1  0  0  0  0
 28 72  1  0  0  0  0
 29 73  1  0  0  0  0
 29 74  1  0  0  0  0
 31 75  1  0  0  0  0
 31 76  1  0  0  0  0
 31 77  1  0  0  0  0
 32 78  1  0  0  0  0
 32 79  1  0  0  0  0
 32 80  1  0  0  0  0
M  CHG  3   7   1  11   1  30   1
M  END
>  <energy>
637.75291902466392

$$$$
