CC#CC(=N[NH+]=[N-])C1C(=O)C2C(C(C)O)C3C1C21CCN(C)C31
                    3D

 45 48  0  0  0  0  0  0  0  0999 V2000
   -5.3470   -0.0125    0.1294 C   0  0  0  0  0  0  0  0  0  0  0  0
   -4.1508   -0.1661   -0.6870 C   0  0  0  0  0  0  0  0  0  0  0  0
   -3.1432   -0.2998   -1.3282 C   0  0  0  0  0  0  0  0  0  0  0  0
   -1.9061   -0.4772   -2.0261 C   0  0  0  0  0  0  0  0  0  0  0  0
   -1.8963    0.0106   -3.2216 N   0  0  0  0  0  0  0  0  0  0  0  0
   -2.8542    0.9746   -3.6278 N   0  3  0  0  0  0  0  0  0  0  0  0
   -2.4809    2.1664   -3.7509 N   0  5  0  0  0  0  0  0  0  0  0  0
   -0.6973   -1.0694   -1.3898 C   0  0  0  0  0  0  0  0  0  0  0  0
   -0.8996   -1.8084   -0.0778 C   0  0  0  0  0  0  0  0  0  0  0  0
   -1.6850   -2.7129    0.1675 O   0  0  0  0  0  0  0  0  0  0  0  0
    0.1123   -1.2645    0.9107 C   0  0  0  0  0  0  0  0  0  0  0  0
    1.5126   -1.6507    0.3051 C   0  0  0  0  0  0  0  0  0  0  0  0
    2.6191   -1.9893    1.3095 C   0  0  0  0  0  0  0  0  0  0  0  0
    3.9654   -2.1710    0.6158 C   0  0  0  0  0  0  0  0  0  0  0  0
    2.3156   -3.2115    1.9803 O   0  0  0  0  0  0  0  0  0  0  0  0
    1.7590   -0.3225   -0.4634 C   0  0  0  0  0  0  0  0  0  0  0  0
    0.3143    0.0328   -0.9777 C   0  0  0  0  0  0  0  0  0  0  0  0
    0.1345    0.2204    0.5780 C   0  0  0  0  0  0  0  0  0  0  0  0
   -0.7618    1.2821    1.1217 C   0  0  0  0  0  0  0  0  0  0  0  0
    0.0735    2.5614    0.9166 C   0  0  0  0  0  0  0  0  0  0  0  0
    1.3110    2.1544    0.2163 N   0  0  0  0  0  0  0  0  0  0  0  0
    2.4280    3.0336    0.4993 C   0  0  0  0  0  0  0  0  0  0  0  0
    1.5592    0.7740    0.6383 C   0  0  0  0  0  0  0  0  0  0  0  0
   -6.0117    0.7553   -0.2802 H   0  0  0  0  0  0  0  0  0  0  0  0
   -5.0696    0.2787    1.1475 H   0  0  0  0  0  0  0  0  0  0  0  0
   -5.8890   -0.9621    0.1821 H   0  0  0  0  0  0  0  0  0  0  0  0
   -3.8449    0.7642   -3.6004 H   0  0  0  0  0  0  0  0  0  0  0  0
   -0.2160   -1.7519   -2.0997 H   0  0  0  0  0  0  0  0  0  0  0  0
   -0.0619   -1.5329    1.9492 H   0  0  0  0  0  0  0  0  0  0  0  0
    1.4254   -2.4951   -0.3949 H   0  0  0  0  0  0  0  0  0  0  0  0
    2.7305   -1.2234    2.0796 H   0  0  0  0  0  0  0  0  0  0  0  0
    4.2376   -1.3069    0.0073 H   0  0  0  0  0  0  0  0  0  0  0  0
    4.7581   -2.3188    1.3567 H   0  0  0  0  0  0  0  0  0  0  0  0
    3.9672   -3.0570   -0.0257 H   0  0  0  0  0  0  0  0  0  0  0  0
    1.4165   -3.1537    2.3386 H   0  0  0  0  0  0  0  0  0  0  0  0
    2.5866   -0.2438   -1.1674 H   0  0  0  0  0  0  0  0  0  0  0  0
    0.2845    0.9087   -1.6322 H   0  0  0  0  0  0  0  0  0  0  0  0
   -1.7193    1.3368    0.5987 H   0  0  0  0  0  0  0  0  0  0  0  0
   -0.9642    1.1334    2.1896 H   0  0  0  0  0  0  0  0  0  0  0  0
    0.2849    2.9914    1.9038 H   0  0  0  0  0  0  0  0  0  0  0  0
   -0.4718    3.3068    0.3299 H   0  0  0  0  0  0  0  0  0  0  0  0
    2.1922    4.0559    0.1800 H   0  0  0  0  0  0  0  0  0  0  0  0
    2.6817    3.0632    1.5658 H   0  0  0  0  0  0  0  0  0  0  0  0
    3.3177    2.7236   -0.0577 H   0  0  0  0  0  0  0  0  0  0  0  0
    2.0832    0.6728    1.5912 H   0  0  0  0  0  0  0  0  0  0  0  0
  2  1  1  0  0  0  0
  3  2  3  0  0  0  0
  4  3  1  0  0  0  0
  5  4  2  0  0  0  0
  6  5  1  0  0  0  0
  7  6  2  0  0  0  0
  8  4  1  0  0  0  0
  9  8  1  0  0  0  0
 10  9  2  0  0  0  0
 11  9  1  0  0  0  0
 12 11  1  0  0  0  0
 13 12  1  0  0  0  0
 14 13  1  0  0  0  0
 15 13  1  0  0  0  0
 16 12  1  0  0  0  0
 17 16  1  0  0  0  0
 17  8  1  0  0  0  0
 18 17  1  0  0  0  0
 18 11  1  0  0  0  0
 19 18  1  0  0  0  0
 20 19  1  0  0  0  0
 21 20  1  0  0  0  0
 22 21  1  0  0  0  0
 23 21  1  0  0  0  0
 23 16  1  0  0  0  0
 23 18  1  0  0  0  0
  1 24  1  0  0  0  0
  1 25  1  0  0  0  0
  1 26  1  0  0  0  0
  6 27  1  0  0  0  0
  8 28  1  0  0  0  0
 11 29  1  0  0  0  0
 12 30  1  0  0  0  0
 13 31  1  0  0  0  0
 14 32  1  0  0  0  0
 14 33  1  0  0  0  0
 14 34  1  0  0  0  0
 15 35  1  0  0  0  0
 16 36  1  0  0  0  0
 17 37  1  0  0  0  0
 19 38  1  0  0  0  0
 19 39  1  0  0  0  0
 20 40  1  0  0  0  0
 20 41  1  0  0  0  0
 22 42  1  0  0  0  0
 22 43  1  0  0  0  0
 22 44  1  0  0  0  0
 23 45  1  0  0  0  0
M  CHG  2   6   1   7  -1
M  END
>  <energy>
55.666227024921355

$$$$
