CCC(=O)NC12CC3C4C5CC1(O)C1C5C(=O)C2C3C41C(C)=O
                    3D

 44 49  0  0  0  0  0  0  0  0999 V2000
   -4.9205   -0.1488    1.0106 C   0  0  0  0  0  0  0  0  0  0  0  0
   -3.8455   -1.0576    1.5974 C   0  0  0  0  0  0  0  0  0  0  0  0
   -2.4792   -0.4532    1.3541 C   0  0  0  0  0  0  0  0  0  0  0  0
   -2.3367    0.7580    1.1727 O   0  0  0  0  0  0  0  0  0  0  0  0
   -1.3927   -1.3222    1.3524 N   0  0  0  0  0  0  0  0  0  0  0  0
   -0.1942   -0.7559    0.8163 C   0  0  0  0  0  0  0  0  0  0  0  0
    0.5377    0.4753    2.0870 C   0  0  0  0  0  0  0  0  0  0  0  0
    2.2809    0.7669    1.4519 C   0  0  0  0  0  0  0  0  0  0  0  0
    3.0385    0.3490   -0.3076 C   0  0  0  0  0  0  0  0  0  0  0  0
    2.7300   -0.8264   -1.7029 C   0  0  0  0  0  0  0  0  0  0  0  0
    0.9623   -1.3143   -2.3266 C   0  0  0  0  0  0  0  0  0  0  0  0
   -0.1347   -0.7043   -1.0186 C   0  0  0  0  0  0  0  0  0  0  0  0
   -1.2100   -0.0039   -1.5983 O   0  0  0  0  0  0  0  0  0  0  0  0
    1.1359   -0.0658   -1.2344 C   0  0  0  0  0  0  0  0  0  0  0  0
    2.0321   -1.6555   -0.8421 C   0  0  0  0  0  0  0  0  0  0  0  0
    2.1657   -1.8651    0.5641 C   0  0  0  0  0  0  0  0  0  0  0  0
    3.0003   -2.5543    1.1098 O   0  0  0  0  0  0  0  0  0  0  0  0
    1.1474   -1.0746    1.1980 C   0  0  0  0  0  0  0  0  0  0  0  0
    1.1865    0.5958    0.6161 C   0  0  0  0  0  0  0  0  0  0  0  0
    1.8110    1.0523   -0.5907 C   0  0  0  0  0  0  0  0  0  0  0  0
    1.7238    2.4451   -1.2345 C   0  0  0  0  0  0  0  0  0  0  0  0
    0.3489    3.0721   -1.4270 C   0  0  0  0  0  0  0  0  0  0  0  0
    2.7277    3.0288   -1.6388 O   0  0  0  0  0  0  0  0  0  0  0  0
   -4.9333    0.8205    1.5194 H   0  0  0  0  0  0  0  0  0  0  0  0
   -5.9119   -0.5974    1.1300 H   0  0  0  0  0  0  0  0  0  0  0  0
   -4.7407    0.0347   -0.0562 H   0  0  0  0  0  0  0  0  0  0  0  0
   -4.0168   -1.1723    2.6718 H   0  0  0  0  0  0  0  0  0  0  0  0
   -3.9230   -2.0466    1.1407 H   0  0  0  0  0  0  0  0  0  0  0  0
   -1.5331   -2.3216    1.3312 H   0  0  0  0  0  0  0  0  0  0  0  0
    0.6094    0.0613    3.1183 H   0  0  0  0  0  0  0  0  0  0  0  0
   -0.0466    1.4120    2.2326 H   0  0  0  0  0  0  0  0  0  0  0  0
    2.4897    1.7989    1.7677 H   0  0  0  0  0  0  0  0  0  0  0  0
    3.9746    0.8742   -0.5299 H   0  0  0  0  0  0  0  0  0  0  0  0
    3.6066   -1.2996   -2.1367 H   0  0  0  0  0  0  0  0  0  0  0  0
    0.7766   -0.8494   -3.3267 H   0  0  0  0  0  0  0  0  0  0  0  0
    0.7488   -2.3846   -2.5336 H   0  0  0  0  0  0  0  0  0  0  0  0
   -1.9913   -0.5830   -1.5651 H   0  0  0  0  0  0  0  0  0  0  0  0
    1.1188    0.5057   -2.2301 H   0  0  0  0  0  0  0  0  0  0  0  0
    1.8793   -2.6759   -1.2313 H   0  0  0  0  0  0  0  0  0  0  0  0
    1.2308   -1.3855    2.2611 H   0  0  0  0  0  0  0  0  0  0  0  0
    0.3097    1.3270    0.4980 H   0  0  0  0  0  0  0  0  0  0  0  0
   -0.2849    2.4525   -2.0711 H   0  0  0  0  0  0  0  0  0  0  0  0
    0.4702    4.0333   -1.9296 H   0  0  0  0  0  0  0  0  0  0  0  0
   -0.1484    3.2541   -0.4695 H   0  0  0  0  0  0  0  0  0  0  0  0
  2  1  1  0  0  0  0
  3  2  1  0  0  0  0
  4  3  2  0  0  0  0
  5  3  1  0  0  0  0
  6  5  1  0  0  0  0
  7  6  1  0  0  0  0
  8  7  1  0  0  0  0
  9  8  1  0  0  0  0
 10  9  1  0  0  0  0
 11 10  1  0  0  0  0
 12 11  1  0  0  0  0
 12  6  1  0  0  0  0
 13 12  1  0  0  0  0
 14 12  1  0  0  0  0
 15 14  1  0  0  0  0
 15 10  1  0  0  0  0
 16 15  1  0  0  0  0
 17 16  2  0  0  0  0
 18 16  1  0  0  0  0
 18  6  1  0  0  0  0
 19 18  1  0  0  0  0
 19  8  1  0  0  0  0
 20 19  1  0  0  0  0
 20  9  1  0  0  0  0
 20 14  1  0  0  0  0
 21 20  1  0  0  0  0
 22 21  1  0  0  0  0
 23 21  2  0  0  0  0
  1 24  1  0  0  0  0
  1 25  1  0  0  0  0
  1 26  1  0  0  0  0
  2 27  1  0  0  0  0
  2 28  1  0  0  0  0
  5 29  1  0  0  0  0
  7 30  1  0  0  0  0
  7 31  1  0  0  0  0
  8 32  1  0  0  0  0
  9 33  1  0  0  0  0
 10 34  1  0  0  0  0
 11 35  1  0  0  0  0
 11 36  1  0  0  0  0
 13 37  1  0  0  0  0
 14 38  1  0  0  0  0
 15 39  1  0  0  0  0
 18 40  1  0  0  0  0
 19 41  1  0  0  0  0
 22 42  1  0  0  0  0
 22 43  1  0  0  0  0
 22 44  1  0  0  0  0
M  END
>  <energy>
796.94058499702544

$$$$
