CC=C1NC(=c2ccc(=CC3=[NH+]CC3)[nH]2)C2(C)C(C=CCN(C)Cc3ccccc3)C(C(=O)N=CCC(C)(C)C)
                    3D

113118  0  0  0  0  0  0  0  0999 V2000
   -1.2252   -0.7035   -3.1492 C   0  0  0  0  0  0  0  0  0  0  0  0
   -0.0795   -0.0445   -2.4216 C   0  0  0  0  0  0  0  0  0  0  0  0
    0.1477   -0.0927   -1.1057 C   0  0  0  0  0  0  0  0  0  0  0  0
   -0.6538   -0.7932   -0.2543 N   0  0  0  0  0  0  0  0  0  0  0  0
   -0.0006   -1.0077    0.9456 C   0  0  0  0  0  0  0  0  0  0  0  0
    0.3085   -2.2853    1.2672 C   0  0  0  0  0  0  0  0  0  0  0  0
    1.1228   -2.8788    2.2970 C   0  0  0  0  0  0  0  0  0  0  0  0
    1.5976   -4.0703    1.8678 C   0  0  0  0  0  0  0  0  0  0  0  0
    1.0889   -4.3101    0.5270 C   0  0  0  0  0  0  0  0  0  0  0  0
    1.5143   -5.2645   -0.3145 C   0  0  0  0  0  0  0  0  0  0  0  0
    0.9570   -5.3421   -1.6609 C   0  0  0  0  0  0  0  0  0  0  0  0
   -0.2154   -5.1363   -2.1342 N   0  3  0  0  0  0  0  0  0  0  0  0
    0.1439   -5.4817   -3.4817 C   0  0  0  0  0  0  0  0  0  0  0  0
    1.5948   -5.6168   -2.9992 C   0  0  0  0  0  0  0  0  0  0  0  0
    0.1795   -3.2900    0.2800 N   0  0  0  0  0  0  0  0  0  0  0  0
    0.7373    0.3213    1.2237 C   0  0  0  0  0  0  0  0  0  0  0  0
    1.9987    0.2425    2.0954 C   0  0  0  0  0  0  0  0  0  0  0  0
   -0.0609    1.7177    1.5359 C   0  0  0  0  0  0  0  0  0  0  0  0
   -1.3115    1.7552    2.3652 C   0  0  0  0  0  0  0  0  0  0  0  0
   -1.8341    0.8116    3.1683 C   0  0  0  0  0  0  0  0  0  0  0  0
   -2.9499    1.1207    4.1412 C   0  0  0  0  0  0  0  0  0  0  0  0
   -4.2046    0.4310    3.8635 N   0  0  0  0  0  0  0  0  0  0  0  0
   -5.3096    1.1941    4.4511 C   0  0  0  0  0  0  0  0  0  0  0  0
   -4.2361   -0.9359    4.4109 C   0  0  0  0  0  0  0  0  0  0  0  0
   -3.8911   -1.9736    3.3721 C   0  0  0  0  0  0  0  0  0  0  0  0
   -4.6158   -2.0281    2.1712 C   0  0  0  0  0  0  0  0  0  0  0  0
   -4.3654   -3.0219    1.2246 C   0  0  0  0  0  0  0  0  0  0  0  0
   -3.3856   -3.9785    1.4814 C   0  0  0  0  0  0  0  0  0  0  0  0
   -2.6672   -3.9461    2.6772 C   0  0  0  0  0  0  0  0  0  0  0  0
   -2.9207   -2.9486    3.6231 C   0  0  0  0  0  0  0  0  0  0  0  0
   -0.1518    2.4605    0.1681 C   0  0  0  0  0  0  0  0  0  0  0  0
   -0.1496    3.9754    0.0998 C   0  0  0  0  0  0  0  0  0  0  0  0
    0.9113    4.5974    0.2225 O   0  0  0  0  0  0  0  0  0  0  0  0
   -1.3223    4.4826   -0.3995 N   0  0  0  0  0  0  0  0  0  0  0  0
   -1.2419    5.0488   -1.5581 C   0  0  0  0  0  0  0  0  0  0  0  0
   -2.4643    5.4066   -2.3712 C   0  0  0  0  0  0  0  0  0  0  0  0
   -2.9887    4.2086   -3.2034 C   0  0  0  0  0  0  0  0  0  0  0  0
   -1.8557    3.3928   -3.8489 C   0  0  0  0  0  0  0  0  0  0  0  0
   -3.8267    3.2682   -2.3188 C   0  0  0  0  0  0  0  0  0  0  0  0
   -3.8852    4.7459   -4.3375 C   0  0  0  0  0  0  0  0  0  0  0  0
    1.2019    2.0477   -0.4063 C   0  0  0  0  0  0  0  0  0  0  0  0
    1.7165    2.5555   -1.7269 C   0  0  0  0  0  0  0  0  0  0  0  0
    2.9889    2.6075   -1.9460 N   0  3  0  0  0  0  0  0  0  0  0  0
    3.9430    2.2264   -0.9672 N   0  3  0  0  0  0  0  0  0  0  0  0
    4.3566    3.0383    0.0216 C   0  0  0  0  0  0  0  0  0  0  0  0
    5.0878    2.2845    0.8390 N   0  0  0  0  0  0  0  0  0  0  0  0
    5.2380    0.9838    0.3631 C   0  0  0  0  0  0  0  0  0  0  0  0
    6.0401    0.0037    1.1627 C   0  0  0  0  0  0  0  0  0  0  0  0
    5.7228   -1.4768    0.9531 C   0  0  0  0  0  0  0  0  0  0  0  0
    6.8359   -2.2086    0.2144 C   0  0  0  0  0  0  0  0  0  0  0  0
    4.5167    0.9468   -0.8324 C   0  0  0  0  0  0  0  0  0  0  0  0
    4.2903   -0.1659   -1.7845 C   0  0  0  0  0  0  0  0  0  0  0  0
    1.1628    0.5804   -0.3318 N   0  0  0  0  0  0  0  0  0  0  0  0
   -0.8430   -1.2217   -4.0332 H   0  0  0  0  0  0  0  0  0  0  0  0
   -1.9493    0.0547   -3.4600 H   0  0  0  0  0  0  0  0  0  0  0  0
   -1.7572   -1.4437   -2.5470 H   0  0  0  0  0  0  0  0  0  0  0  0
    0.5710    0.5175   -3.0778 H   0  0  0  0  0  0  0  0  0  0  0  0
   -1.3124   -1.4936   -0.5610 H   0  0  0  0  0  0  0  0  0  0  0  0
    1.3073   -2.4487    3.2630 H   0  0  0  0  0  0  0  0  0  0  0  0
    2.2414   -4.7333    2.4184 H   0  0  0  0  0  0  0  0  0  0  0  0
    2.3097   -5.9585   -0.0619 H   0  0  0  0  0  0  0  0  0  0  0  0
   -1.0342   -4.9131   -1.5777 H   0  0  0  0  0  0  0  0  0  0  0  0
   -0.0370   -4.6709   -4.1996 H   0  0  0  0  0  0  0  0  0  0  0  0
   -0.3375   -6.4029   -3.8224 H   0  0  0  0  0  0  0  0  0  0  0  0
    2.0684   -6.5940   -3.1197 H   0  0  0  0  0  0  0  0  0  0  0  0
    2.2749   -4.8232   -3.3294 H   0  0  0  0  0  0  0  0  0  0  0  0
    0.2466   -2.8748   -0.6433 H   0  0  0  0  0  0  0  0  0  0  0  0
    2.5890    1.1639    2.0433 H   0  0  0  0  0  0  0  0  0  0  0  0
    1.7297    0.1016    3.1461 H   0  0  0  0  0  0  0  0  0  0  0  0
    2.6655   -0.5748    1.8027 H   0  0  0  0  0  0  0  0  0  0  0  0
    0.6284    2.3255    2.1461 H   0  0  0  0  0  0  0  0  0  0  0  0
   -1.7899    2.7400    2.3880 H   0  0  0  0  0  0  0  0  0  0  0  0
   -1.4293   -0.1931    3.2263 H   0  0  0  0  0  0  0  0  0  0  0  0
   -3.1238    2.1999    4.1042 H   0  0  0  0  0  0  0  0  0  0  0  0
   -2.5931    0.9357    5.1594 H   0  0  0  0  0  0  0  0  0  0  0  0
   -5.1733    1.2988    5.5326 H   0  0  0  0  0  0  0  0  0  0  0  0
   -6.2673    0.6996    4.2535 H   0  0  0  0  0  0  0  0  0  0  0  0
   -5.3660    2.1885    3.9941 H   0  0  0  0  0  0  0  0  0  0  0  0
   -3.5961   -1.0406    5.2926 H   0  0  0  0  0  0  0  0  0  0  0  0
   -5.2436   -1.2039    4.7590 H   0  0  0  0  0  0  0  0  0  0  0  0
   -5.3872   -1.2885    1.9740 H   0  0  0  0  0  0  0  0  0  0  0  0
   -4.9591   -3.0566    0.3138 H   0  0  0  0  0  0  0  0  0  0  0  0
   -3.2186   -4.7831    0.7707 H   0  0  0  0  0  0  0  0  0  0  0  0
   -1.9221   -4.7102    2.8883 H   0  0  0  0  0  0  0  0  0  0  0  0
   -2.3634   -2.9455    4.5565 H   0  0  0  0  0  0  0  0  0  0  0  0
   -0.9936    2.0964   -0.4365 H   0  0  0  0  0  0  0  0  0  0  0  0
   -0.2672    5.1904   -2.0730 H   0  0  0  0  0  0  0  0  0  0  0  0
   -2.1569    6.2221   -3.0369 H   0  0  0  0  0  0  0  0  0  0  0  0
   -3.2423    5.7904   -1.7024 H   0  0  0  0  0  0  0  0  0  0  0  0
   -2.2489    2.6012   -4.4998 H   0  0  0  0  0  0  0  0  0  0  0  0
   -1.2366    2.8974   -3.0960 H   0  0  0  0  0  0  0  0  0  0  0  0
   -1.2032    4.0294   -4.4552 H   0  0  0  0  0  0  0  0  0  0  0  0
   -3.2136    2.7860   -1.5511 H   0  0  0  0  0  0  0  0  0  0  0  0
   -4.2905    2.4710   -2.9134 H   0  0  0  0  0  0  0  0  0  0  0  0
   -4.6323    3.8128   -1.8138 H   0  0  0  0  0  0  0  0  0  0  0  0
   -4.6955    5.3661   -3.9386 H   0  0  0  0  0  0  0  0  0  0  0  0
   -4.3371    3.9287   -4.9117 H   0  0  0  0  0  0  0  0  0  0  0  0
   -3.3039    5.3584   -5.0383 H   0  0  0  0  0  0  0  0  0  0  0  0
    1.9467    2.3826    0.3211 H   0  0  0  0  0  0  0  0  0  0  0  0
    1.0325    2.8473   -2.5352 H   0  0  0  0  0  0  0  0  0  0  0  0
    3.3457    2.8919   -2.8684 H   0  0  0  0  0  0  0  0  0  0  0  0
    4.1048    4.0823    0.1614 H   0  0  0  0  0  0  0  0  0  0  0  0
    5.4843    2.6259    1.7189 H   0  0  0  0  0  0  0  0  0  0  0  0
    5.8361    0.2308    2.2182 H   0  0  0  0  0  0  0  0  0  0  0  0
    7.1024    0.2210    1.0032 H   0  0  0  0  0  0  0  0  0  0  0  0
    4.7704   -1.6319    0.4389 H   0  0  0  0  0  0  0  0  0  0  0  0
    5.6199   -1.9468    1.9393 H   0  0  0  0  0  0  0  0  0  0  0  0
    6.5865   -3.2704    0.1007 H   0  0  0  0  0  0  0  0  0  0  0  0
    7.7852   -2.1468    0.7621 H   0  0  0  0  0  0  0  0  0  0  0  0
    6.9923   -1.7909   -0.7858 H   0  0  0  0  0  0  0  0  0  0  0  0
    4.0569    0.2154   -2.7829 H   0  0  0  0  0  0  0  0  0  0  0  0
    5.1878   -0.7873   -1.8685 H   0  0  0  0  0  0  0  0  0  0  0  0
    3.4513   -0.7787   -1.4362 H   0  0  0  0  0  0  0  0  0  0  0  0
  2  1  1  0  0  0  0
  3  2  2  0  0  0  0
  4  3  1  0  0  0  0
  5  4  1  0  0  0  0
  6  5  2  0  0  0  0
  7  6  1  0  0  0  0
  8  7  2  0  0  0  0
  9  8  1  0  0  0  0
 10  9  2  0  0  0  0
 11 10  1  0  0  0  0
 12 11  2  0  0  0  0
 13 12  1  0  0  0  0
 14 13  1  0  0  0  0
 14 11  1  0  0  0  0
 15  9  1  0  0  0  0
 15  6  1  0  0  0  0
 16  5  1  0  0  0  0
 17 16  1  0  0  0  0
 18 16  1  0  0  0  0
 19 18  1  0  0  0  0
 20 19  2  0  0  0  0
 21 20  1  0  0  0  0
 22 21  1  0  0  0  0
 23 22  1  0  0  0  0
 24 22  1  0  0  0  0
 25 24  1  0  0  0  0
 26 25  2  0  0  0  0
 27 26  1  0  0  0  0
 28 27  2  0  0  0  0
 29 28  1  0  0  0  0
 30 29  2  0  0  0  0
 30 25  1  0  0  0  0
 31 18  1  0  0  0  0
 32 31  1  0  0  0  0
 33 32  2  0  0  0  0
 34 32  1  0  0  0  0
 35 34  2  0  0  0  0
 36 35  1  0  0  0  0
 37 36  1  0  0  0  0
 38 37  1  0  0  0  0
 39 37  1  0  0  0  0
 40 37  1  0  0  0  0
 41 31  1  0  0  0  0
 42 41  1  0  0  0  0
 43 42  2  0  0  0  0
 44 43  1  0  0  0  0
 45 44  2  0  0  0  0
 46 45  1  0  0  0  0
 47 46  1  0  0  0  0
 48 47  1  0  0  0  0
 49 48  1  0  0  0  0
 50 49  1  0  0  0  0
 51 47  2  0  0  0  0
 51 44  1  0  0  0  0
 52 51  1  0  0  0  0
 53 41  1  0  0  0  0
 53  3  1  0  0  0  0
 53 16  1  0  0  0  0
  1 54  1  0  0  0  0
  1 55  1  0  0  0  0
  1 56  1  0  0  0  0
  2 57  1  0  0  0  0
  4 58  1  0  0  0  0
  7 59  1  0  0  0  0
  8 60  1  0  0  0  0
 10 61  1  0  0  0  0
 12 62  1  0  0  0  0
 13 63  1  0  0  0  0
 13 64  1  0  0  0  0
 14 65  1  0  0  0  0
 14 66  1  0  0  0  0
 15 67  1  0  0  0  0
 17 68  1  0  0  0  0
 17 69  1  0  0  0  0
 17 70  1  0  0  0  0
 18 71  1  0  0  0  0
 19 72  1  0  0  0  0
 20 73  1  0  0  0  0
 21 74  1  0  0  0  0
 21 75  1  0  0  0  0
 23 76  1  0  0  0  0
 23 77  1  0  0  0  0
 23 78  1  0  0  0  0
 24 79  1  0  0  0  0
 24 80  1  0  0  0  0
 26 81  1  0  0  0  0
 27 82  1  0  0  0  0
 28 83  1  0  0  0  0
 29 84  1  0  0  0  0
 30 85  1  0  0  0  0
 31 86  1  0  0  0  0
 35 87  1  0  0  0  0
 36 88  1  0  0  0  0
 36 89  1  0  0  0  0
 38 90  1  0  0  0  0
 38 91  1  0  0  0  0
 38 92  1  0  0  0  0
 39 93  1  0  0  0  0
 39 94  1  0  0  0  0
 39 95  1  0  0  0  0
 40 96  1  0  0  0  0
 40 97  1  0  0  0  0
 40 98  1  0  0  0  0
 41 99  1  0  0  0  0
 42100  1  0  0  0  0
 43101  1  0  0  0  0
 45102  1  0  0  0  0
 46103  1  0  0  0  0
 48104  1  0  0  0  0
 48105  1  0  0  0  0
 49106  1  0  0  0  0
 49107  1  0  0  0  0
 50108  1  0  0  0  0
 50109  1  0  0  0  0
 50110  1  0  0  0  0
 52111  1  0  0  0  0
 52112  1  0  0  0  0
 52113  1  0  0  0  0
M  CHG  3  12   1  43   1  44   1
M  END
>  <energy>
328.06762933777577

$$$$
