CC(=CC(=O)N1CC12CC(NC(=O)CC1CC[N+](C)(C)CC1)C(=O)N(C(=O)CCC[N+](C)(C)C)C2)CCCC1=
                    3D

110115  0  0  0  0  0  0  0  0999 V2000
    1.0958    1.5565   -0.7363 C   0  0  0  0  0  0  0  0  0  0  0  0
    2.4597    1.3116   -1.3150 C   0  0  0  0  0  0  0  0  0  0  0  0
    2.7808    0.2315   -2.0780 C   0  0  0  0  0  0  0  0  0  0  0  0
    1.6943   -0.4893   -2.7705 C   0  0  0  0  0  0  0  0  0  0  0  0
    0.9729    0.1749   -3.5195 O   0  0  0  0  0  0  0  0  0  0  0  0
    1.4585   -1.8105   -2.5306 N   0  0  0  0  0  0  0  0  0  0  0  0
    0.1566   -2.1745   -2.1625 C   0  0  0  0  0  0  0  0  0  0  0  0
    1.4096   -2.6997   -1.4154 C   0  0  0  0  0  0  0  0  0  0  0  0
    1.5421   -4.2069   -1.5659 C   0  0  0  0  0  0  0  0  0  0  0  0
    0.6610   -4.8579   -0.4547 C   0  0  0  0  0  0  0  0  0  0  0  0
   -0.7414   -4.4239   -0.6684 N   0  0  0  0  0  0  0  0  0  0  0  0
   -1.8479   -4.5398    0.1125 C   0  0  0  0  0  0  0  0  0  0  0  0
   -2.9029   -4.8233   -0.4531 O   0  0  0  0  0  0  0  0  0  0  0  0
   -1.8300   -4.1133    1.5647 C   0  0  0  0  0  0  0  0  0  0  0  0
   -2.8629   -3.0004    1.8959 C   0  0  0  0  0  0  0  0  0  0  0  0
   -4.3393   -3.3711    1.6536 C   0  0  0  0  0  0  0  0  0  0  0  0
   -4.9342   -2.7138    0.4073 C   0  0  0  0  0  0  0  0  0  0  0  0
   -4.8575   -1.1646    0.4995 N   0  3  0  0  0  0  0  0  0  0  0  0
   -4.7789   -0.6073   -0.9250 C   0  0  0  0  0  0  0  0  0  0  0  0
   -6.1529   -0.6347    1.1290 C   0  0  0  0  0  0  0  0  0  0  0  0
   -3.6661   -0.6828    1.3233 C   0  0  0  0  0  0  0  0  0  0  0  0
   -2.5021   -1.6627    1.2318 C   0  0  0  0  0  0  0  0  0  0  0  0
    1.3261   -4.5026    0.8824 C   0  0  0  0  0  0  0  0  0  0  0  0
    1.0910   -5.1456    1.9092 O   0  0  0  0  0  0  0  0  0  0  0  0
    2.0503   -3.3204    0.8910 N   0  0  0  0  0  0  0  0  0  0  0  0
    3.2263   -3.3575    1.6191 C   0  0  0  0  0  0  0  0  0  0  0  0
    3.9224   -4.3646    1.7263 O   0  0  0  0  0  0  0  0  0  0  0  0
    3.6176   -2.0966    2.3546 C   0  0  0  0  0  0  0  0  0  0  0  0
    2.8535   -2.0356    3.6760 C   0  0  0  0  0  0  0  0  0  0  0  0
    3.1717   -0.7601    4.4616 C   0  0  0  0  0  0  0  0  0  0  0  0
    2.0129    0.2512    4.5041 N   0  3  0  0  0  0  0  0  0  0  0  0
    2.5313    1.4980    5.2428 C   0  0  0  0  0  0  0  0  0  0  0  0
    1.5617    0.6640    3.1286 C   0  0  0  0  0  0  0  0  0  0  0  0
    0.8366   -0.2973    5.3075 C   0  0  0  0  0  0  0  0  0  0  0  0
    1.7069   -2.2160   -0.0124 C   0  0  0  0  0  0  0  0  0  0  0  0
    3.4860    2.3953   -1.0517 C   0  0  0  0  0  0  0  0  0  0  0  0
    3.7857    3.2572   -2.2966 C   0  0  0  0  0  0  0  0  0  0  0  0
    2.9786    4.5551   -2.4545 C   0  0  0  0  0  0  0  0  0  0  0  0
    1.5495    4.4369   -3.0233 C   0  0  0  0  0  0  0  0  0  0  0  0
    0.5670    4.9324   -2.3034 N   0  3  0  0  0  0  0  0  0  0  0  0
    0.6223    5.5307   -0.9473 C   0  0  0  0  0  0  0  0  0  0  0  0
   -0.7922    4.9826   -2.7999 C   0  0  0  0  0  0  0  0  0  0  0  0
   -1.6974    3.8780   -2.6636 C   0  0  0  0  0  0  0  0  0  0  0  0
   -2.9248    4.3371   -3.1204 C   0  0  0  0  0  0  0  0  0  0  0  0
   -2.5493    5.3277   -4.0568 N   0  0  0  0  0  0  0  0  0  0  0  0
   -1.1618    5.2720   -4.1188 C   0  0  0  0  0  0  0  0  0  0  0  0
   -0.5899    4.6245   -5.1988 N   0  0  0  0  0  0  0  0  0  0  0  0
    0.2179    3.5132   -4.7845 C   0  0  0  0  0  0  0  0  0  0  0  0
   -0.3613    2.4506   -4.0095 N   0  0  0  0  0  0  0  0  0  0  0  0
   -1.2953    2.5866   -2.9192 N   0  0  0  0  0  0  0  0  0  0  0  0
    1.4746    3.8764   -4.4551 C   0  0  0  0  0  0  0  0  0  0  0  0
    0.7853    2.5907   -0.8825 H   0  0  0  0  0  0  0  0  0  0  0  0
    0.3128    0.9167   -1.1511 H   0  0  0  0  0  0  0  0  0  0  0  0
    1.1221    1.3714    0.3447 H   0  0  0  0  0  0  0  0  0  0  0  0
    3.7801    0.0602   -2.4669 H   0  0  0  0  0  0  0  0  0  0  0  0
   -0.3346   -2.7630   -2.9370 H   0  0  0  0  0  0  0  0  0  0  0  0
   -0.4548   -1.3973   -1.7187 H   0  0  0  0  0  0  0  0  0  0  0  0
    2.5940   -4.5040   -1.4645 H   0  0  0  0  0  0  0  0  0  0  0  0
    1.2077   -4.5418   -2.5579 H   0  0  0  0  0  0  0  0  0  0  0  0
    0.6858   -5.9456   -0.5582 H   0  0  0  0  0  0  0  0  0  0  0  0
   -1.0484   -4.7263   -1.5906 H   0  0  0  0  0  0  0  0  0  0  0  0
   -2.0214   -5.0008    2.1759 H   0  0  0  0  0  0  0  0  0  0  0  0
   -0.8537   -3.7189    1.8379 H   0  0  0  0  0  0  0  0  0  0  0  0
   -2.7692   -2.8475    2.9843 H   0  0  0  0  0  0  0  0  0  0  0  0
   -4.4689   -4.4580    1.6050 H   0  0  0  0  0  0  0  0  0  0  0  0
   -4.9268   -3.0461    2.5246 H   0  0  0  0  0  0  0  0  0  0  0  0
   -4.3843   -2.9982   -0.4912 H   0  0  0  0  0  0  0  0  0  0  0  0
   -5.9846   -2.9873    0.2646 H   0  0  0  0  0  0  0  0  0  0  0  0
   -3.8342   -0.9297   -1.3727 H   0  0  0  0  0  0  0  0  0  0  0  0
   -5.6289   -0.9895   -1.4972 H   0  0  0  0  0  0  0  0  0  0  0  0
   -4.8113    0.4851   -0.8705 H   0  0  0  0  0  0  0  0  0  0  0  0
   -6.9917   -0.9114    0.4841 H   0  0  0  0  0  0  0  0  0  0  0  0
   -6.0711    0.4540    1.2042 H   0  0  0  0  0  0  0  0  0  0  0  0
   -6.2640   -1.0802    2.1207 H   0  0  0  0  0  0  0  0  0  0  0  0
   -3.9916   -0.5831    2.3662 H   0  0  0  0  0  0  0  0  0  0  0  0
   -3.3802    0.3130    0.9602 H   0  0  0  0  0  0  0  0  0  0  0  0
   -1.6236   -1.2353    1.7372 H   0  0  0  0  0  0  0  0  0  0  0  0
   -2.2168   -1.8051    0.1850 H   0  0  0  0  0  0  0  0  0  0  0  0
    3.4450   -1.1980    1.7571 H   0  0  0  0  0  0  0  0  0  0  0  0
    4.6979   -2.1375    2.5440 H   0  0  0  0  0  0  0  0  0  0  0  0
    3.1644   -2.8961    4.2820 H   0  0  0  0  0  0  0  0  0  0  0  0
    1.7815   -2.1758    3.5019 H   0  0  0  0  0  0  0  0  0  0  0  0
    3.3949   -1.0155    5.5041 H   0  0  0  0  0  0  0  0  0  0  0  0
    4.0413   -0.2398    4.0457 H   0  0  0  0  0  0  0  0  0  0  0  0
    2.8747    1.1944    6.2373 H   0  0  0  0  0  0  0  0  0  0  0  0
    3.3569    1.9214    4.6610 H   0  0  0  0  0  0  0  0  0  0  0  0
    1.7114    2.2190    5.3207 H   0  0  0  0  0  0  0  0  0  0  0  0
    1.0982   -0.1920    2.6292 H   0  0  0  0  0  0  0  0  0  0  0  0
    0.8243    1.4684    3.2246 H   0  0  0  0  0  0  0  0  0  0  0  0
    2.4308    1.0110    2.5616 H   0  0  0  0  0  0  0  0  0  0  0  0
    1.1952   -0.5802    6.3024 H   0  0  0  0  0  0  0  0  0  0  0  0
    0.4179   -1.1643    4.7913 H   0  0  0  0  0  0  0  0  0  0  0  0
    0.0751    0.4859    5.3852 H   0  0  0  0  0  0  0  0  0  0  0  0
    2.5356   -1.5117   -0.0439 H   0  0  0  0  0  0  0  0  0  0  0  0
    0.8322   -1.7156    0.4145 H   0  0  0  0  0  0  0  0  0  0  0  0
    3.1763    3.0269   -0.2132 H   0  0  0  0  0  0  0  0  0  0  0  0
    4.4178    1.9086   -0.7278 H   0  0  0  0  0  0  0  0  0  0  0  0
    4.8399    3.5653   -2.2115 H   0  0  0  0  0  0  0  0  0  0  0  0
    3.7291    2.6598   -3.2132 H   0  0  0  0  0  0  0  0  0  0  0  0
    3.5132    5.1749   -3.1859 H   0  0  0  0  0  0  0  0  0  0  0  0
    3.0361    5.1351   -1.5276 H   0  0  0  0  0  0  0  0  0  0  0  0
    0.7933    6.6057   -1.0559 H   0  0  0  0  0  0  0  0  0  0  0  0
    1.4078    5.0612   -0.3529 H   0  0  0  0  0  0  0  0  0  0  0  0
   -0.3273    5.3556   -0.4230 H   0  0  0  0  0  0  0  0  0  0  0  0
   -3.8897    3.8695   -3.2595 H   0  0  0  0  0  0  0  0  0  0  0  0
   -3.1211    5.4930   -4.8680 H   0  0  0  0  0  0  0  0  0  0  0  0
   -0.1296    5.2383   -5.8817 H   0  0  0  0  0  0  0  0  0  0  0  0
    0.2633    1.6307   -3.9378 H   0  0  0  0  0  0  0  0  0  0  0  0
   -2.0660    1.9399   -3.1042 H   0  0  0  0  0  0  0  0  0  0  0  0
    2.0187    4.5693   -5.1020 H   0  0  0  0  0  0  0  0  0  0  0  0
  2  1  1  0  0  0  0
  3  2  2  0  0  0  0
  4  3  1  0  0  0  0
  5  4  2  0  0  0  0
  6  4  1  0  0  0  0
  7  6  1  0  0  0  0
  8  7  1  0  0  0  0
  8  6  1  0  0  0  0
  9  8  1  0  0  0  0
 10  9  1  0  0  0  0
 11 10  1  0  0  0  0
 12 11  1  0  0  0  0
 13 12  2  0  0  0  0
 14 12  1  0  0  0  0
 15 14  1  0  0  0  0
 16 15  1  0  0  0  0
 17 16  1  0  0  0  0
 18 17  1  0  0  0  0
 19 18  1  0  0  0  0
 20 18  1  0  0  0  0
 21 18  1  0  0  0  0
 22 21  1  0  0  0  0
 22 15  1  0  0  0  0
 23 10  1  0  0  0  0
 24 23  2  0  0  0  0
 25 23  1  0  0  0  0
 26 25  1  0  0  0  0
 27 26  2  0  0  0  0
 28 26  1  0  0  0  0
 29 28  1  0  0  0  0
 30 29  1  0  0  0  0
 31 30  1  0  0  0  0
 32 31  1  0  0  0  0
 33 31  1  0  0  0  0
 34 31  1  0  0  0  0
 35 25  1  0  0  0  0
 35  8  1  0  0  0  0
 36  2  1  0  0  0  0
 37 36  1  0  0  0  0
 38 37  1  0  0  0  0
 39 38  1  0  0  0  0
 40 39  2  0  0  0  0
 41 40  1  0  0  0  0
 42 40  1  0  0  0  0
 43 42  1  0  0  0  0
 44 43  2  0  0  0  0
 45 44  1  0  0  0  0
 46 45  1  0  0  0  0
 46 42  2  0  0  0  0
 47 46  1  0  0  0  0
 48 47  1  0  0  0  0
 49 48  1  0  0  0  0
 50 49  1  0  0  0  0
 50 43  1  0  0  0  0
 51 48  2  0  0  0  0
 51 39  1  0  0  0  0
  1 52  1  0  0  0  0
  1 53  1  0  0  0  0
  1 54  1  0  0  0  0
  3 55  1  0  0  0  0
  7 56  1  0  0  0  0
  7 57  1  0  0  0  0
  9 58  1  0  0  0  0
  9 59  1  0  0  0  0
 10 60  1  0  0  0  0
 11 61  1  0  0  0  0
 14 62  1  0  0  0  0
 14 63  1  0  0  0  0
 15 64  1  0  0  0  0
 16 65  1  0  0  0  0
 16 66  1  0  0  0  0
 17 67  1  0  0  0  0
 17 68  1  0  0  0  0
 19 69  1  0  0  0  0
 19 70  1  0  0  0  0
 19 71  1  0  0  0  0
 20 72  1  0  0  0  0
 20 73  1  0  0  0  0
 20 74  1  0  0  0  0
 21 75  1  0  0  0  0
 21 76  1  0  0  0  0
 22 77  1  0  0  0  0
 22 78  1  0  0  0  0
 28 79  1  0  0  0  0
 28 80  1  0  0  0  0
 29 81  1  0  0  0  0
 29 82  1  0  0  0  0
 30 83  1  0  0  0  0
 30 84  1  0  0  0  0
 32 85  1  0  0  0  0
 32 86  1  0  0  0  0
 32 87  1  0  0  0  0
 33 88  1  0  0  0  0
 33 89  1  0  0  0  0
 33 90  1  0  0  0  0
 34 91  1  0  0  0  0
 34 92  1  0  0  0  0
 34 93  1  0  0  0  0
 35 94  1  0  0  0  0
 35 95  1  0  0  0  0
 36 96  1  0  0  0  0
 36 97  1  0  0  0  0
 37 98  1  0  0  0  0
 37 99  1  0  0  0  0
 38100  1  0  0  0  0
 38101  1  0  0  0  0
 41102  1  0  0  0  0
 41103  1  0  0  0  0
 41104  1  0  0  0  0
 44105  1  0  0  0  0
 45106  1  0  0  0  0
 47107  1  0  0  0  0
 49108  1  0  0  0  0
 50109  1  0  0  0  0
 51110  1  0  0  0  0
M  CHG  3  18   1  31   1  40   1
M  END
>  <energy>
440.97653204941287

$$$$
