CC(N=[N+]=[N-])C(C)NC1C2CC3(N=C(N)SC4CC4)CC1(Cl)C23
                    3D

 46 49  0  0  0  0  0  0  0  0999 V2000
    2.5702   -3.9909    1.6772 C   0  0  0  0  0  0  0  0  0  0  0  0
    1.7509   -4.2043    0.4015 C   0  0  0  0  0  0  0  0  0  0  0  0
    0.9118   -5.3894    0.6280 N   0  0  0  0  0  0  0  0  0  0  0  0
    1.2028   -6.4073   -0.0361 N   0  3  0  0  0  0  0  0  0  0  0  0
    1.4809   -7.3238   -0.6399 N   0  5  0  0  0  0  0  0  0  0  0  0
    0.8352   -2.9940    0.0535 C   0  0  0  0  0  0  0  0  0  0  0  0
    0.0374   -3.3100   -1.2247 C   0  0  0  0  0  0  0  0  0  0  0  0
    1.5748   -1.7697   -0.2703 N   0  0  0  0  0  0  0  0  0  0  0  0
    1.2991   -0.5617    0.5327 C   0  0  0  0  0  0  0  0  0  0  0  0
    1.7673    0.5600   -0.4534 C   0  0  0  0  0  0  0  0  0  0  0  0
    1.9063    1.9714    0.1239 C   0  0  0  0  0  0  0  0  0  0  0  0
    0.3905    2.0979    0.1268 C   0  0  0  0  0  0  0  0  0  0  0  0
   -0.2593    3.1698   -0.5508 N   0  0  0  0  0  0  0  0  0  0  0  0
   -0.8176    4.1176    0.1103 C   0  0  0  0  0  0  0  0  0  0  0  0
   -0.7276    4.4589    1.4241 N   0  0  0  0  0  0  0  0  0  0  0  0
   -1.9030    5.1122   -0.8349 S   0  0  0  0  0  0  0  0  0  0  0  0
   -3.3658    4.1664   -0.6839 C   0  0  0  0  0  0  0  0  0  0  0  0
   -3.4004    2.6716   -0.8800 C   0  0  0  0  0  0  0  0  0  0  0  0
   -3.9877    3.5683   -1.9236 C   0  0  0  0  0  0  0  0  0  0  0  0
   -0.3331    1.3363    1.2314 C   0  0  0  0  0  0  0  0  0  0  0  0
   -0.1744    0.0170    0.4292 C   0  0  0  0  0  0  0  0  0  0  0  0
   -1.6633   -0.9245    0.3708 Cl  0  0  0  0  0  0  0  0  0  0  0  0
    0.2988    0.8562   -0.7609 C   0  0  0  0  0  0  0  0  0  0  0  0
    3.1538   -4.8899    1.9076 H   0  0  0  0  0  0  0  0  0  0  0  0
    3.2768   -3.1570    1.5787 H   0  0  0  0  0  0  0  0  0  0  0  0
    1.9142   -3.7943    2.5319 H   0  0  0  0  0  0  0  0  0  0  0  0
    2.4521   -4.3745   -0.4241 H   0  0  0  0  0  0  0  0  0  0  0  0
    0.1443   -2.8348    0.8891 H   0  0  0  0  0  0  0  0  0  0  0  0
   -0.4659   -2.4238   -1.6230 H   0  0  0  0  0  0  0  0  0  0  0  0
   -0.7313   -4.0644   -1.0303 H   0  0  0  0  0  0  0  0  0  0  0  0
    0.6886   -3.6834   -2.0222 H   0  0  0  0  0  0  0  0  0  0  0  0
    2.5591   -1.9570   -0.4546 H   0  0  0  0  0  0  0  0  0  0  0  0
    1.7575   -0.5614    1.5240 H   0  0  0  0  0  0  0  0  0  0  0  0
    2.4251    0.3128   -1.2875 H   0  0  0  0  0  0  0  0  0  0  0  0
    2.4189    2.6665   -0.5551 H   0  0  0  0  0  0  0  0  0  0  0  0
    2.3919    2.0310    1.1030 H   0  0  0  0  0  0  0  0  0  0  0  0
    0.1810    4.2662    1.8285 H   0  0  0  0  0  0  0  0  0  0  0  0
   -1.0230    5.4153    1.6011 H   0  0  0  0  0  0  0  0  0  0  0  0
   -4.0537    4.5740    0.0495 H   0  0  0  0  0  0  0  0  0  0  0  0
   -2.5146    2.1149   -1.1593 H   0  0  0  0  0  0  0  0  0  0  0  0
   -4.0675    2.1008   -0.2461 H   0  0  0  0  0  0  0  0  0  0  0  0
   -5.0655    3.5749   -2.0236 H   0  0  0  0  0  0  0  0  0  0  0  0
   -3.4620    3.6469   -2.8693 H   0  0  0  0  0  0  0  0  0  0  0  0
    0.1335    1.3672    2.2236 H   0  0  0  0  0  0  0  0  0  0  0  0
   -1.3799    1.6464    1.3630 H   0  0  0  0  0  0  0  0  0  0  0  0
   -0.1271    0.7955   -1.7559 H   0  0  0  0  0  0  0  0  0  0  0  0
  2  1  1  0  0  0  0
  3  2  1  0  0  0  0
  4  3  2  0  0  0  0
  5  4  2  0  0  0  0
  6  2  1  0  0  0  0
  7  6  1  0  0  0  0
  8  6  1  0  0  0  0
  9  8  1  0  0  0  0
 10  9  1  0  0  0  0
 11 10  1  0  0  0  0
 12 11  1  0  0  0  0
 13 12  1  0  0  0  0
 14 13  2  0  0  0  0
 15 14  1  0  0  0  0
 16 14  1  0  0  0  0
 17 16  1  0  0  0  0
 18 17  1  0  0  0  0
 19 18  1  0  0  0  0
 19 17  1  0  0  0  0
 20 12  1  0  0  0  0
 21 20  1  0  0  0  0
 21  9  1  0  0  0  0
 22 21  1  0  0  0  0
 23 21  1  0  0  0  0
 23 10  1  0  0  0  0
 23 12  1  0  0  0  0
  1 24  1  0  0  0  0
  1 25  1  0  0  0  0
  1 26  1  0  0  0  0
  2 27  1  0  0  0  0
  6 28  1  0  0  0  0
  7 29  1  0  0  0  0
  7 30  1  0  0  0  0
  7 31  1  0  0  0  0
  8 32  1  0  0  0  0
  9 33  1  0  0  0  0
 10 34  1  0  0  0  0
 11 35  1  0  0  0  0
 11 36  1  0  0  0  0
 15 37  1  0  0  0  0
 15 38  1  0  0  0  0
 17 39  1  0  0  0  0
 18 40  1  0  0  0  0
 18 41  1  0  0  0  0
 19 42  1  0  0  0  0
 19 43  1  0  0  0  0
 20 44  1  0  0  0  0
 20 45  1  0  0  0  0
 23 46  1  0  0  0  0
M  CHG  2   4   1   5  -1
M  END
>  <energy>
31.605937656625507

$$$$
