CC1(O)OC2(C)C3C4Oc5c(O)ccc6c5N(CCN(CCCCCCCCCC[N+](C)(C)C)C4C6)CC32C1O
                    3D

 92 97  0  0  0  0  0  0  0  0999 V2000
    2.4501    4.3125   -0.6189 C   0  0  0  0  0  0  0  0  0  0  0  0
    2.9319    3.1120    0.1786 C   0  0  0  0  0  0  0  0  0  0  0  0
    4.0322    3.5203    0.9914 O   0  0  0  0  0  0  0  0  0  0  0  0
    1.8575    2.6550    1.0207 O   0  0  0  0  0  0  0  0  0  0  0  0
    1.9924    1.2178    1.1691 C   0  0  0  0  0  0  0  0  0  0  0  0
    2.1622    0.8168    2.5966 C   0  0  0  0  0  0  0  0  0  0  0  0
    1.3217    0.4432    0.0566 C   0  0  0  0  0  0  0  0  0  0  0  0
    0.7218   -0.9576    0.0284 C   0  0  0  0  0  0  0  0  0  0  0  0
    1.1646   -1.6560    1.2353 O   0  0  0  0  0  0  0  0  0  0  0  0
    2.1258   -2.6595    1.0999 C   0  0  0  0  0  0  0  0  0  0  0  0
    1.7988   -3.8511    1.7619 C   0  0  0  0  0  0  0  0  0  0  0  0
    1.1412   -3.8335    2.9570 O   0  0  0  0  0  0  0  0  0  0  0  0
    1.9789   -5.0570    1.1061 C   0  0  0  0  0  0  0  0  0  0  0  0
    2.2221   -4.9845   -0.2643 C   0  0  0  0  0  0  0  0  0  0  0  0
    2.4040   -3.7086   -0.8265 C   0  0  0  0  0  0  0  0  0  0  0  0
    2.9414   -2.7194   -0.0140 C   0  0  0  0  0  0  0  0  0  0  0  0
    3.6998   -1.6502   -0.5123 N   0  0  0  0  0  0  0  0  0  0  0  0
    4.0305   -1.5348   -1.9805 C   0  0  0  0  0  0  0  0  0  0  0  0
    2.8423   -1.2672   -3.0596 C   0  0  0  0  0  0  0  0  0  0  0  0
    1.4471   -0.7990   -2.6515 N   0  0  0  0  0  0  0  0  0  0  0  0
    0.5120   -0.7596   -3.7737 C   0  0  0  0  0  0  0  0  0  0  0  0
   -0.6910    0.1479   -3.4638 C   0  0  0  0  0  0  0  0  0  0  0  0
   -1.9541   -0.6112   -3.0501 C   0  0  0  0  0  0  0  0  0  0  0  0
   -2.9617    0.2367   -2.2617 C   0  0  0  0  0  0  0  0  0  0  0  0
   -3.2971    1.6046   -2.8643 C   0  0  0  0  0  0  0  0  0  0  0  0
   -4.3289    2.4039   -2.0494 C   0  0  0  0  0  0  0  0  0  0  0  0
   -3.9230    2.6174   -0.5816 C   0  0  0  0  0  0  0  0  0  0  0  0
   -4.6083    1.6190    0.3628 C   0  0  0  0  0  0  0  0  0  0  0  0
   -3.9456    1.5612    1.7502 C   0  0  0  0  0  0  0  0  0  0  0  0
   -3.6205    0.1130    2.1306 C   0  0  0  0  0  0  0  0  0  0  0  0
   -2.8464   -0.0358    3.4506 N   0  3  0  0  0  0  0  0  0  0  0  0
   -2.6762   -1.5368    3.7260 C   0  0  0  0  0  0  0  0  0  0  0  0
   -3.6018    0.5853    4.6218 C   0  0  0  0  0  0  0  0  0  0  0  0
   -1.4565    0.5865    3.3492 C   0  0  0  0  0  0  0  0  0  0  0  0
    1.0037   -1.5909   -1.4571 C   0  0  0  0  0  0  0  0  0  0  0  0
    1.1287   -3.1593   -1.5925 C   0  0  0  0  0  0  0  0  0  0  0  0
    3.8844   -0.4378    0.3191 C   0  0  0  0  0  0  0  0  0  0  0  0
    2.8654    0.6796    0.0494 C   0  0  0  0  0  0  0  0  0  0  0  0
    3.3210    1.9005   -0.7409 C   0  0  0  0  0  0  0  0  0  0  0  0
    4.7204    1.9025   -1.0118 O   0  0  0  0  0  0  0  0  0  0  0  0
    1.5324    4.0847   -1.1700 H   0  0  0  0  0  0  0  0  0  0  0  0
    2.2185    5.1457    0.0545 H   0  0  0  0  0  0  0  0  0  0  0  0
    3.2143    4.6692   -1.3170 H   0  0  0  0  0  0  0  0  0  0  0  0
    4.7307    2.8506    0.8669 H   0  0  0  0  0  0  0  0  0  0  0  0
    1.3480    1.2343    3.1994 H   0  0  0  0  0  0  0  0  0  0  0  0
    2.1898   -0.2553    2.7752 H   0  0  0  0  0  0  0  0  0  0  0  0
    3.0938    1.2380    2.9872 H   0  0  0  0  0  0  0  0  0  0  0  0
    0.7511    1.0422   -0.6527 H   0  0  0  0  0  0  0  0  0  0  0  0
   -0.3665   -0.8531    0.1220 H   0  0  0  0  0  0  0  0  0  0  0  0
    1.2752   -2.9352    3.3005 H   0  0  0  0  0  0  0  0  0  0  0  0
    1.7388   -6.0032    1.5775 H   0  0  0  0  0  0  0  0  0  0  0  0
    2.0404   -5.8483   -0.8985 H   0  0  0  0  0  0  0  0  0  0  0  0
    4.7539   -0.7224   -2.1034 H   0  0  0  0  0  0  0  0  0  0  0  0
    4.5662   -2.4454   -2.2820 H   0  0  0  0  0  0  0  0  0  0  0  0
    2.7407   -2.1904   -3.6424 H   0  0  0  0  0  0  0  0  0  0  0  0
    3.2404   -0.5269   -3.7669 H   0  0  0  0  0  0  0  0  0  0  0  0
    1.0285   -0.3082   -4.6301 H   0  0  0  0  0  0  0  0  0  0  0  0
    0.2002   -1.7593   -4.0979 H   0  0  0  0  0  0  0  0  0  0  0  0
   -0.9253    0.7303   -4.3639 H   0  0  0  0  0  0  0  0  0  0  0  0
   -0.4152    0.8832   -2.7007 H   0  0  0  0  0  0  0  0  0  0  0  0
   -2.4436   -1.0012   -3.9513 H   0  0  0  0  0  0  0  0  0  0  0  0
   -1.6950   -1.4797   -2.4311 H   0  0  0  0  0  0  0  0  0  0  0  0
   -3.8871   -0.3417   -2.1586 H   0  0  0  0  0  0  0  0  0  0  0  0
   -2.5554    0.3729   -1.2521 H   0  0  0  0  0  0  0  0  0  0  0  0
   -2.3885    2.2119   -2.9481 H   0  0  0  0  0  0  0  0  0  0  0  0
   -3.6803    1.4767   -3.8841 H   0  0  0  0  0  0  0  0  0  0  0  0
   -4.4396    3.3867   -2.5251 H   0  0  0  0  0  0  0  0  0  0  0  0
   -5.3130    1.9220   -2.1142 H   0  0  0  0  0  0  0  0  0  0  0  0
   -2.8313    2.5626   -0.4855 H   0  0  0  0  0  0  0  0  0  0  0  0
   -4.2058    3.6303   -0.2734 H   0  0  0  0  0  0  0  0  0  0  0  0
   -5.6592    1.9129    0.4774 H   0  0  0  0  0  0  0  0  0  0  0  0
   -4.6297    0.6234   -0.0912 H   0  0  0  0  0  0  0  0  0  0  0  0
   -3.0467    2.1832    1.7677 H   0  0  0  0  0  0  0  0  0  0  0  0
   -4.6415    1.9926    2.4778 H   0  0  0  0  0  0  0  0  0  0  0  0
   -4.5468   -0.4627    2.2356 H   0  0  0  0  0  0  0  0  0  0  0  0
   -3.0065   -0.3591    1.3541 H   0  0  0  0  0  0  0  0  0  0  0  0
   -3.6720   -1.9866    3.8027 H   0  0  0  0  0  0  0  0  0  0  0  0
   -2.1293   -1.6545    4.6684 H   0  0  0  0  0  0  0  0  0  0  0  0
   -2.1126   -1.9756    2.8961 H   0  0  0  0  0  0  0  0  0  0  0  0
   -3.0582    0.3509    5.5427 H   0  0  0  0  0  0  0  0  0  0  0  0
   -3.6410    1.6703    4.4831 H   0  0  0  0  0  0  0  0  0  0  0  0
   -4.6088    0.1565    4.6493 H   0  0  0  0  0  0  0  0  0  0  0  0
   -1.5530    1.6739    3.2766 H   0  0  0  0  0  0  0  0  0  0  0  0
   -0.9625    0.1773    2.4631 H   0  0  0  0  0  0  0  0  0  0  0  0
   -0.8986    0.3249    4.2548 H   0  0  0  0  0  0  0  0  0  0  0  0
    1.9576   -1.3432   -1.1803 H   0  0  0  0  0  0  0  0  0  0  0  0
    0.2211   -3.5966   -1.1572 H   0  0  0  0  0  0  0  0  0  0  0  0
    1.1829   -3.4967   -2.6320 H   0  0  0  0  0  0  0  0  0  0  0  0
    3.8984   -0.7195    1.3769 H   0  0  0  0  0  0  0  0  0  0  0  0
    4.9089   -0.0794    0.1592 H   0  0  0  0  0  0  0  0  0  0  0  0
    2.7796    1.9189   -1.6935 H   0  0  0  0  0  0  0  0  0  0  0  0
    4.9103    2.6922   -1.5519 H   0  0  0  0  0  0  0  0  0  0  0  0
  2  1  1  0  0  0  0
  3  2  1  0  0  0  0
  4  2  1  0  0  0  0
  5  4  1  0  0  0  0
  6  5  1  0  0  0  0
  7  5  1  0  0  0  0
  8  7  1  0  0  0  0
  9  8  1  0  0  0  0
 10  9  1  0  0  0  0
 11 10  2  0  0  0  0
 12 11  1  0  0  0  0
 13 11  1  0  0  0  0
 14 13  2  0  0  0  0
 15 14  1  0  0  0  0
 16 15  2  0  0  0  0
 16 10  1  0  0  0  0
 17 16  1  0  0  0  0
 18 17  1  0  0  0  0
 19 18  1  0  0  0  0
 20 19  1  0  0  0  0
 21 20  1  0  0  0  0
 22 21  1  0  0  0  0
 23 22  1  0  0  0  0
 24 23  1  0  0  0  0
 25 24  1  0  0  0  0
 26 25  1  0  0  0  0
 27 26  1  0  0  0  0
 28 27  1  0  0  0  0
 29 28  1  0  0  0  0
 30 29  1  0  0  0  0
 31 30  1  0  0  0  0
 32 31  1  0  0  0  0
 33 31  1  0  0  0  0
 34 31  1  0  0  0  0
 35 20  1  0  0  0  0
 35  8  1  0  0  0  0
 36 35  1  0  0  0  0
 36 15  1  0  0  0  0
 37 17  1  0  0  0  0
 38 37  1  0  0  0  0
 38  7  1  0  0  0  0
 38  5  1  0  0  0  0
 39 38  1  0  0  0  0
 39  2  1  0  0  0  0
 40 39  1  0  0  0  0
  1 41  1  0  0  0  0
  1 42  1  0  0  0  0
  1 43  1  0  0  0  0
  3 44  1  0  0  0  0
  6 45  1  0  0  0  0
  6 46  1  0  0  0  0
  6 47  1  0  0  0  0
  7 48  1  0  0  0  0
  8 49  1  0  0  0  0
 12 50  1  0  0  0  0
 13 51  1  0  0  0  0
 14 52  1  0  0  0  0
 18 53  1  0  0  0  0
 18 54  1  0  0  0  0
 19 55  1  0  0  0  0
 19 56  1  0  0  0  0
 21 57  1  0  0  0  0
 21 58  1  0  0  0  0
 22 59  1  0  0  0  0
 22 60  1  0  0  0  0
 23 61  1  0  0  0  0
 23 62  1  0  0  0  0
 24 63  1  0  0  0  0
 24 64  1  0  0  0  0
 25 65  1  0  0  0  0
 25 66  1  0  0  0  0
 26 67  1  0  0  0  0
 26 68  1  0  0  0  0
 27 69  1  0  0  0  0
 27 70  1  0  0  0  0
 28 71  1  0  0  0  0
 28 72  1  0  0  0  0
 29 73  1  0  0  0  0
 29 74  1  0  0  0  0
 30 75  1  0  0  0  0
 30 76  1  0  0  0  0
 32 77  1  0  0  0  0
 32 78  1  0  0  0  0
 32 79  1  0  0  0  0
 33 80  1  0  0  0  0
 33 81  1  0  0  0  0
 33 82  1  0  0  0  0
 34 83  1  0  0  0  0
 34 84  1  0  0  0  0
 34 85  1  0  0  0  0
 35 86  1  0  0  0  0
 36 87  1  0  0  0  0
 36 88  1  0  0  0  0
 37 89  1  0  0  0  0
 37 90  1  0  0  0  0
 39 91  1  0  0  0  0
 40 92  1  0  0  0  0
M  CHG  1  31   1
M  END
>  <energy>
358.13740296421713

$$$$
