C1OC2CNC12
                    3D

 13 14  0  0  0  0  0  0  0  0999 V2000
    1.4503    0.0316    0.6546 C   0  0  0  0  0  0  0  0  0  0  0  0
    0.6125   -1.0197    1.2066 O   0  0  0  0  0  0  0  0  0  0  0  0
   -0.2886   -0.9117    0.0788 C   0  0  0  0  0  0  0  0  0  0  0  0
   -1.4223    0.1183    0.0995 C   0  0  0  0  0  0  0  0  0  0  0  0
   -0.5026    1.1507   -0.4158 N   0  0  0  0  0  0  0  0  0  0  0  0
    0.5631    0.1543   -0.5856 C   0  0  0  0  0  0  0  0  0  0  0  0
    1.5022    0.9018    1.3164 H   0  0  0  0  0  0  0  0  0  0  0  0
    2.4611   -0.3389    0.4590 H   0  0  0  0  0  0  0  0  0  0  0  0
   -0.4365   -1.8488   -0.4619 H   0  0  0  0  0  0  0  0  0  0  0  0
   -1.8286    0.3401    1.0910 H   0  0  0  0  0  0  0  0  0  0  0  0
   -2.2504   -0.1160   -0.5776 H   0  0  0  0  0  0  0  0  0  0  0  0
   -0.8182    1.5821   -1.2837 H   0  0  0  0  0  0  0  0  0  0  0  0
    0.9581   -0.0437   -1.5814 H   0  0  0  0  0  0  0  0  0  0  0  0
  2  1  1  0  0  0  0
  3  2  1  0  0  0  0
  4  3  1  0  0  0  0
  5  4  1  0  0  0  0
  6  5  1  0  0  0  0
  6  1  1  0  0  0  0
  6  3  1  0  0  0  0
  1  7  1  0  0  0  0
  1  8  1  0  0  0  0
  3  9  1  0  0  0  0
  4 10  1  0  0  0  0
  4 11  1  0  0  0  0
  5 12  1  0  0  0  0
  6 13  1  0  0  0  0
M  END
>  <energy>
55.902681576662602

$$$$
