O=C(O)CC1C(Br)CC2(O)C3C4C5C6C3C5C1(CC(=O)C(=O)N1CCC1)N6C42
                    3D

 51 57  0  0  0  0  0  0  0  0999 V2000
   -0.9655   -4.4522   -1.8008 O   0  0  0  0  0  0  0  0  0  0  0  0
   -0.6493   -3.9875   -0.7170 C   0  0  0  0  0  0  0  0  0  0  0  0
   -1.3592   -4.2666    0.3883 O   0  0  0  0  0  0  0  0  0  0  0  0
    0.4998   -3.0357   -0.4593 C   0  0  0  0  0  0  0  0  0  0  0  0
   -0.0078   -1.6472   -0.0329 C   0  0  0  0  0  0  0  0  0  0  0  0
   -0.1444   -1.2504    1.6837 C   0  0  0  0  0  0  0  0  0  0  0  0
    0.1613   -2.8467    2.8343 Br  0  0  0  0  0  0  0  0  0  0  0  0
    0.6075    0.0457    2.4880 C   0  0  0  0  0  0  0  0  0  0  0  0
    2.1258    0.3913    2.1139 C   0  0  0  0  0  0  0  0  0  0  0  0
    3.0253    0.0922    3.1915 O   0  0  0  0  0  0  0  0  0  0  0  0
    2.7504    1.2196    0.8361 C   0  0  0  0  0  0  0  0  0  0  0  0
    3.6585    0.2627    0.2513 C   0  0  0  0  0  0  0  0  0  0  0  0
    2.9693    1.1022   -1.4472 C   0  0  0  0  0  0  0  0  0  0  0  0
    1.4920    1.3546   -0.8287 C   0  0  0  0  0  0  0  0  0  0  0  0
    2.4560    0.0476   -0.7341 C   0  0  0  0  0  0  0  0  0  0  0  0
    1.7871   -0.0173   -1.9954 C   0  0  0  0  0  0  0  0  0  0  0  0
    0.4002   -0.4863   -1.0775 C   0  0  0  0  0  0  0  0  0  0  0  0
   -0.7736   -0.2721   -2.0677 C   0  0  0  0  0  0  0  0  0  0  0  0
   -1.1167    1.1460   -2.4366 C   0  0  0  0  0  0  0  0  0  0  0  0
   -1.1180    1.5507   -3.5937 O   0  0  0  0  0  0  0  0  0  0  0  0
   -1.5560    2.0625   -1.3021 C   0  0  0  0  0  0  0  0  0  0  0  0
   -1.0709    3.1807   -1.1926 O   0  0  0  0  0  0  0  0  0  0  0  0
   -2.4856    1.4795   -0.4468 N   0  0  0  0  0  0  0  0  0  0  0  0
   -3.9365    1.6905   -0.6814 C   0  0  0  0  0  0  0  0  0  0  0  0
   -3.9336    2.6199    0.5292 C   0  0  0  0  0  0  0  0  0  0  0  0
   -2.6192    1.9717    0.9391 C   0  0  0  0  0  0  0  0  0  0  0  0
    0.7607    0.3710    0.0209 N   0  0  0  0  0  0  0  0  0  0  0  0
    2.0588   -0.5314    1.0256 C   0  0  0  0  0  0  0  0  0  0  0  0
   -2.0777   -4.8724    0.1043 H   0  0  0  0  0  0  0  0  0  0  0  0
    1.0396   -2.9592   -1.4129 H   0  0  0  0  0  0  0  0  0  0  0  0
    1.1983   -3.4931    0.2449 H   0  0  0  0  0  0  0  0  0  0  0  0
   -1.0960   -1.7265   -0.1751 H   0  0  0  0  0  0  0  0  0  0  0  0
   -1.2169   -1.0841    1.8429 H   0  0  0  0  0  0  0  0  0  0  0  0
    0.0041    0.9434    2.3001 H   0  0  0  0  0  0  0  0  0  0  0  0
    0.5285   -0.1304    3.5693 H   0  0  0  0  0  0  0  0  0  0  0  0
    3.0560    0.9006    3.7246 H   0  0  0  0  0  0  0  0  0  0  0  0
    3.1943    2.2180    0.8841 H   0  0  0  0  0  0  0  0  0  0  0  0
    4.6652    0.2880    0.6635 H   0  0  0  0  0  0  0  0  0  0  0  0
    3.4465    1.8980   -2.0218 H   0  0  0  0  0  0  0  0  0  0  0  0
    1.4953    2.3716   -0.4109 H   0  0  0  0  0  0  0  0  0  0  0  0
    2.5695   -1.1052   -0.7381 H   0  0  0  0  0  0  0  0  0  0  0  0
    2.1245   -0.7851   -2.7016 H   0  0  0  0  0  0  0  0  0  0  0  0
   -1.7070   -0.7334   -1.7372 H   0  0  0  0  0  0  0  0  0  0  0  0
   -0.5221   -0.7969   -2.9993 H   0  0  0  0  0  0  0  0  0  0  0  0
   -4.1887    2.1595   -1.6367 H   0  0  0  0  0  0  0  0  0  0  0  0
   -4.5078    0.7641   -0.5620 H   0  0  0  0  0  0  0  0  0  0  0  0
   -4.7569    2.4959    1.2375 H   0  0  0  0  0  0  0  0  0  0  0  0
   -3.8382    3.6814    0.2773 H   0  0  0  0  0  0  0  0  0  0  0  0
   -1.8247    2.6476    1.2616 H   0  0  0  0  0  0  0  0  0  0  0  0
   -2.6963    1.1384    1.6426 H   0  0  0  0  0  0  0  0  0  0  0  0
    2.0938   -1.6153    1.1548 H   0  0  0  0  0  0  0  0  0  0  0  0
  2  1  2  0  0  0  0
  3  2  1  0  0  0  0
  4  2  1  0  0  0  0
  5  4  1  0  0  0  0
  6  5  1  0  0  0  0
  7  6  1  0  0  0  0
  8  6  1  0  0  0  0
  9  8  1  0  0  0  0
 10  9  1  0  0  0  0
 11  9  1  0  0  0  0
 12 11  1  0  0  0  0
 13 12  1  0  0  0  0
 14 13  1  0  0  0  0
 15 14  1  0  0  0  0
 15 11  1  0  0  0  0
 16 15  1  0  0  0  0
 16 13  1  0  0  0  0
 17 16  1  0  0  0  0
 17  5  1  0  0  0  0
 18 17  1  0  0  0  0
 19 18  1  0  0  0  0
 20 19  2  0  0  0  0
 21 19  1  0  0  0  0
 22 21  2  0  0  0  0
 23 21  1  0  0  0  0
 24 23  1  0  0  0  0
 25 24  1  0  0  0  0
 26 25  1  0  0  0  0
 26 23  1  0  0  0  0
 27 17  1  0  0  0  0
 27 14  1  0  0  0  0
 28 27  1  0  0  0  0
 28 12  1  0  0  0  0
 28  9  1  0  0  0  0
  3 29  1  0  0  0  0
  4 30  1  0  0  0  0
  4 31  1  0  0  0  0
  5 32  1  0  0  0  0
  6 33  1  0  0  0  0
  8 34  1  0  0  0  0
  8 35  1  0  0  0  0
 10 36  1  0  0  0  0
 11 37  1  0  0  0  0
 12 38  1  0  0  0  0
 13 39  1  0  0  0  0
 14 40  1  0  0  0  0
 15 41  1  0  0  0  0
 16 42  1  0  0  0  0
 18 43  1  0  0  0  0
 18 44  1  0  0  0  0
 24 45  1  0  0  0  0
 24 46  1  0  0  0  0
 25 47  1  0  0  0  0
 25 48  1  0  0  0  0
 26 49  1  0  0  0  0
 26 50  1  0  0  0  0
 28 51  1  0  0  0  0
M  END
>  <energy>
825.31595448868063

$$$$
