Cc1ccc(-c2nc3c4c(n2)C2=Nc5ccccc5N=C(C4=NC3)c3ccccc32)cc1
                    3D

 49 55  0  0  0  0  0  0  0  0999 V2000
    5.5400    4.0695   -0.1140 C   0  0  0  0  0  0  0  0  0  0  0  0
    4.6730    2.8536   -0.2621 C   0  0  0  0  0  0  0  0  0  0  0  0
    4.7648    1.7964    0.6436 C   0  0  0  0  0  0  0  0  0  0  0  0
    3.8829    0.7090    0.5620 C   0  0  0  0  0  0  0  0  0  0  0  0
    2.8626    0.6539   -0.4070 C   0  0  0  0  0  0  0  0  0  0  0  0
    1.8095   -0.3893   -0.3535 C   0  0  0  0  0  0  0  0  0  0  0  0
    1.8851   -1.2865    0.6754 N   0  0  0  0  0  0  0  0  0  0  0  0
    0.7541   -1.9446    0.9467 C   0  0  0  0  0  0  0  0  0  0  0  0
   -0.3781   -1.7486    0.2389 C   0  0  0  0  0  0  0  0  0  0  0  0
   -0.3690   -0.9281   -0.8389 C   0  0  0  0  0  0  0  0  0  0  0  0
    0.7275   -0.2207   -1.1682 N   0  0  0  0  0  0  0  0  0  0  0  0
   -1.6981   -0.5658   -1.4102 C   0  0  0  0  0  0  0  0  0  0  0  0
   -2.3085    0.5597   -1.1529 N   0  0  0  0  0  0  0  0  0  0  0  0
   -2.0883    1.0689    0.1616 C   0  0  0  0  0  0  0  0  0  0  0  0
   -1.2713    2.1776    0.3660 C   0  0  0  0  0  0  0  0  0  0  0  0
   -1.0249    2.6200    1.6649 C   0  0  0  0  0  0  0  0  0  0  0  0
   -1.6100    1.9708    2.7589 C   0  0  0  0  0  0  0  0  0  0  0  0
   -2.4412    0.8610    2.5706 C   0  0  0  0  0  0  0  0  0  0  0  0
   -2.6744    0.3857    1.2852 C   0  0  0  0  0  0  0  0  0  0  0  0
   -3.4862   -0.7667    1.0630 N   0  0  0  0  0  0  0  0  0  0  0  0
   -2.8688   -1.8297    0.6281 C   0  0  0  0  0  0  0  0  0  0  0  0
   -1.4713   -2.2002    1.0492 C   0  0  0  0  0  0  0  0  0  0  0  0
   -1.1457   -2.8366    2.1405 N   0  0  0  0  0  0  0  0  0  0  0  0
    0.3745   -2.7624    2.1553 C   0  0  0  0  0  0  0  0  0  0  0  0
   -3.2479   -2.3474   -0.7059 C   0  0  0  0  0  0  0  0  0  0  0  0
   -4.1753   -3.3566   -0.9061 C   0  0  0  0  0  0  0  0  0  0  0  0
   -4.4377   -3.7461   -2.2206 C   0  0  0  0  0  0  0  0  0  0  0  0
   -3.7816   -3.1274   -3.3010 C   0  0  0  0  0  0  0  0  0  0  0  0
   -2.8530   -2.0982   -3.0961 C   0  0  0  0  0  0  0  0  0  0  0  0
   -2.5928   -1.7071   -1.7926 C   0  0  0  0  0  0  0  0  0  0  0  0
    2.8130    1.7116   -1.3342 C   0  0  0  0  0  0  0  0  0  0  0  0
    3.6995    2.7957   -1.2612 C   0  0  0  0  0  0  0  0  0  0  0  0
    5.7548    4.5205   -1.0871 H   0  0  0  0  0  0  0  0  0  0  0  0
    6.5007    3.8207    0.3476 H   0  0  0  0  0  0  0  0  0  0  0  0
    5.0385    4.8138    0.5099 H   0  0  0  0  0  0  0  0  0  0  0  0
    5.4938    1.8174    1.4471 H   0  0  0  0  0  0  0  0  0  0  0  0
    3.9692   -0.0763    1.3087 H   0  0  0  0  0  0  0  0  0  0  0  0
   -0.8080    2.6719   -0.4828 H   0  0  0  0  0  0  0  0  0  0  0  0
   -0.3710    3.4733    1.8275 H   0  0  0  0  0  0  0  0  0  0  0  0
   -1.4166    2.3333    3.7654 H   0  0  0  0  0  0  0  0  0  0  0  0
   -2.8949    0.3623    3.4212 H   0  0  0  0  0  0  0  0  0  0  0  0
    0.7056   -2.2814    3.0818 H   0  0  0  0  0  0  0  0  0  0  0  0
    0.7827   -3.7758    2.0827 H   0  0  0  0  0  0  0  0  0  0  0  0
   -4.6893   -3.8174   -0.0687 H   0  0  0  0  0  0  0  0  0  0  0  0
   -5.1684   -4.5307   -2.4122 H   0  0  0  0  0  0  0  0  0  0  0  0
   -4.0172   -3.4403   -4.3177 H   0  0  0  0  0  0  0  0  0  0  0  0
   -2.3751   -1.6077   -3.9393 H   0  0  0  0  0  0  0  0  0  0  0  0
    2.0424    1.7294   -2.1025 H   0  0  0  0  0  0  0  0  0  0  0  0
    3.5902    3.6152   -1.9667 H   0  0  0  0  0  0  0  0  0  0  0  0
  2  1  1  0  0  0  0
  3  2  2  0  0  0  0
  4  3  1  0  0  0  0
  5  4  2  0  0  0  0
  6  5  1  0  0  0  0
  7  6  2  0  0  0  0
  8  7  1  0  0  0  0
  9  8  2  0  0  0  0
 10  9  1  0  0  0  0
 11 10  2  0  0  0  0
 11  6  1  0  0  0  0
 12 10  1  0  0  0  0
 13 12  2  0  0  0  0
 14 13  1  0  0  0  0
 15 14  2  0  0  0  0
 16 15  1  0  0  0  0
 17 16  2  0  0  0  0
 18 17  1  0  0  0  0
 19 18  2  0  0  0  0
 19 14  1  0  0  0  0
 20 19  1  0  0  0  0
 21 20  2  0  0  0  0
 22 21  1  0  0  0  0
 22  9  1  0  0  0  0
 23 22  2  0  0  0  0
 24 23  1  0  0  0  0
 24  8  1  0  0  0  0
 25 21  1  0  0  0  0
 26 25  2  0  0  0  0
 27 26  1  0  0  0  0
 28 27  2  0  0  0  0
 29 28  1  0  0  0  0
 30 29  2  0  0  0  0
 30 25  1  0  0  0  0
 30 12  1  0  0  0  0
 31  5  1  0  0  0  0
 32 31  2  0  0  0  0
 32  2  1  0  0  0  0
  1 33  1  0  0  0  0
  1 34  1  0  0  0  0
  1 35  1  0  0  0  0
  3 36  1  0  0  0  0
  4 37  1  0  0  0  0
 15 38  1  0  0  0  0
 16 39  1  0  0  0  0
 17 40  1  0  0  0  0
 18 41  1  0  0  0  0
 24 42  1  0  0  0  0
 24 43  1  0  0  0  0
 26 44  1  0  0  0  0
 27 45  1  0  0  0  0
 28 46  1  0  0  0  0
 29 47  1  0  0  0  0
 31 48  1  0  0  0  0
 32 49  1  0  0  0  0
M  END
>  <energy>
228.04438704501112

$$$$
