COC(=O)C12CC3C4C5CC(C4C1(C)O2)C53CCNC(C)=O
                    3D

 45 49  0  0  0  0  0  0  0  0999 V2000
    3.9349    0.1132    2.2736 C   0  0  0  0  0  0  0  0  0  0  0  0
    2.8540   -0.0422    1.3522 O   0  0  0  0  0  0  0  0  0  0  0  0
    3.1896   -0.4879    0.1129 C   0  0  0  0  0  0  0  0  0  0  0  0
    4.3117   -0.6257   -0.3328 O   0  0  0  0  0  0  0  0  0  0  0  0
    1.9541   -0.8292   -0.6486 C   0  0  0  0  0  0  0  0  0  0  0  0
    1.1358    0.2907   -1.2404 C   0  0  0  0  0  0  0  0  0  0  0  0
   -0.3370   -0.0501   -1.4466 C   0  0  0  0  0  0  0  0  0  0  0  0
   -0.7317   -1.5052   -1.8186 C   0  0  0  0  0  0  0  0  0  0  0  0
   -2.1383   -1.1514   -1.2218 C   0  0  0  0  0  0  0  0  0  0  0  0
   -2.4390   -2.0972   -0.0457 C   0  0  0  0  0  0  0  0  0  0  0  0
   -0.9676   -1.7824    0.3308 C   0  0  0  0  0  0  0  0  0  0  0  0
   -0.1126   -2.4101   -0.7579 C   0  0  0  0  0  0  0  0  0  0  0  0
    1.3450   -2.2199   -0.4780 C   0  0  0  0  0  0  0  0  0  0  0  0
    1.9833   -3.2425    0.4213 C   0  0  0  0  0  0  0  0  0  0  0  0
    2.1372   -1.8996   -1.6130 O   0  0  0  0  0  0  0  0  0  0  0  0
   -1.2549   -0.3362   -0.2060 C   0  0  0  0  0  0  0  0  0  0  0  0
   -1.7185    0.7462    0.7297 C   0  0  0  0  0  0  0  0  0  0  0  0
   -2.6235    1.7433    0.0048 C   0  0  0  0  0  0  0  0  0  0  0  0
   -2.7360    3.0223    0.6818 N   0  0  0  0  0  0  0  0  0  0  0  0
   -1.8834    4.0796    0.6199 C   0  0  0  0  0  0  0  0  0  0  0  0
   -0.6348    3.9565   -0.2008 C   0  0  0  0  0  0  0  0  0  0  0  0
   -2.1815    5.1333    1.1813 O   0  0  0  0  0  0  0  0  0  0  0  0
    4.2667    1.1553    2.2580 H   0  0  0  0  0  0  0  0  0  0  0  0
    4.7693   -0.5780    2.0896 H   0  0  0  0  0  0  0  0  0  0  0  0
    3.5278   -0.1053    3.2658 H   0  0  0  0  0  0  0  0  0  0  0  0
    1.1964    1.2011   -0.6290 H   0  0  0  0  0  0  0  0  0  0  0  0
    1.5862    0.5220   -2.2125 H   0  0  0  0  0  0  0  0  0  0  0  0
   -0.7676    0.6941   -2.1375 H   0  0  0  0  0  0  0  0  0  0  0  0
   -0.6745   -1.7930   -2.8726 H   0  0  0  0  0  0  0  0  0  0  0  0
   -2.9124   -0.6373   -1.7909 H   0  0  0  0  0  0  0  0  0  0  0  0
   -2.6648   -3.1346   -0.3033 H   0  0  0  0  0  0  0  0  0  0  0  0
   -3.1861   -1.7327    0.6682 H   0  0  0  0  0  0  0  0  0  0  0  0
   -0.6932   -1.9090    1.3776 H   0  0  0  0  0  0  0  0  0  0  0  0
   -0.3494   -3.4648   -0.9369 H   0  0  0  0  0  0  0  0  0  0  0  0
    1.4774   -3.2596    1.3942 H   0  0  0  0  0  0  0  0  0  0  0  0
    3.0471   -3.0567    0.6086 H   0  0  0  0  0  0  0  0  0  0  0  0
    1.9076   -4.2455   -0.0166 H   0  0  0  0  0  0  0  0  0  0  0  0
   -0.8443    1.2268    1.1811 H   0  0  0  0  0  0  0  0  0  0  0  0
   -2.2637    0.3162    1.5791 H   0  0  0  0  0  0  0  0  0  0  0  0
   -3.6337    1.3228   -0.0683 H   0  0  0  0  0  0  0  0  0  0  0  0
   -2.2747    1.9199   -1.0170 H   0  0  0  0  0  0  0  0  0  0  0  0
   -3.6104    3.2812    1.1258 H   0  0  0  0  0  0  0  0  0  0  0  0
    0.1527    3.3974    0.3085 H   0  0  0  0  0  0  0  0  0  0  0  0
   -0.8560    3.5008   -1.1674 H   0  0  0  0  0  0  0  0  0  0  0  0
   -0.2872    4.9733   -0.4023 H   0  0  0  0  0  0  0  0  0  0  0  0
  2  1  1  0  0  0  0
  3  2  1  0  0  0  0
  4  3  2  0  0  0  0
  5  3  1  0  0  0  0
  6  5  1  0  0  0  0
  7  6  1  0  0  0  0
  8  7  1  0  0  0  0
  9  8  1  0  0  0  0
 10  9  1  0  0  0  0
 11 10  1  0  0  0  0
 12 11  1  0  0  0  0
 12  8  1  0  0  0  0
 13 12  1  0  0  0  0
 13  5  1  0  0  0  0
 14 13  1  0  0  0  0
 15 13  1  0  0  0  0
 15  5  1  0  0  0  0
 16 11  1  0  0  0  0
 16  9  1  0  0  0  0
 16  7  1  0  0  0  0
 17 16  1  0  0  0  0
 18 17  1  0  0  0  0
 19 18  1  0  0  0  0
 20 19  1  0  0  0  0
 21 20  1  0  0  0  0
 22 20  2  0  0  0  0
  1 23  1  0  0  0  0
  1 24  1  0  0  0  0
  1 25  1  0  0  0  0
  6 26  1  0  0  0  0
  6 27  1  0  0  0  0
  7 28  1  0  0  0  0
  8 29  1  0  0  0  0
  9 30  1  0  0  0  0
 10 31  1  0  0  0  0
 10 32  1  0  0  0  0
 11 33  1  0  0  0  0
 12 34  1  0  0  0  0
 14 35  1  0  0  0  0
 14 36  1  0  0  0  0
 14 37  1  0  0  0  0
 17 38  1  0  0  0  0
 17 39  1  0  0  0  0
 18 40  1  0  0  0  0
 18 41  1  0  0  0  0
 19 42  1  0  0  0  0
 21 43  1  0  0  0  0
 21 44  1  0  0  0  0
 21 45  1  0  0  0  0
M  END
>  <energy>
40.717332331845782

$$$$
