NC1CC2CC3(CCN4CCCCC4)CC(C1)(C2)C3O
                    3D

 50 53  0  0  0  0  0  0  0  0999 V2000
    2.0777   -3.3181   -0.2667 N   0  0  0  0  0  0  0  0  0  0  0  0
    2.8462   -2.0771   -0.3490 C   0  0  0  0  0  0  0  0  0  0  0  0
    2.3449   -1.2296   -1.6002 C   0  0  0  0  0  0  0  0  0  0  0  0
    2.6232    0.3106   -1.5527 C   0  0  0  0  0  0  0  0  0  0  0  0
    1.3966    1.2702   -1.3428 C   0  0  0  0  0  0  0  0  0  0  0  0
    0.9394    1.3746    0.1713 C   0  0  0  0  0  0  0  0  0  0  0  0
   -0.2216    2.3466    0.4180 C   0  0  0  0  0  0  0  0  0  0  0  0
   -1.4846    2.0547   -0.4020 C   0  0  0  0  0  0  0  0  0  0  0  0
   -2.1562    0.7998   -0.0229 N   0  0  0  0  0  0  0  0  0  0  0  0
   -2.8595    0.2386   -1.1945 C   0  0  0  0  0  0  0  0  0  0  0  0
   -3.9589   -0.7746   -0.8438 C   0  0  0  0  0  0  0  0  0  0  0  0
   -3.7154   -1.4249    0.5110 C   0  0  0  0  0  0  0  0  0  0  0  0
   -3.5966   -0.3638    1.6076 C   0  0  0  0  0  0  0  0  0  0  0  0
   -3.1029    0.9940    1.0841 C   0  0  0  0  0  0  0  0  0  0  0  0
    2.0555    1.4766    1.3529 C   0  0  0  0  0  0  0  0  0  0  0  0
    2.5144    0.0843    0.7908 C   0  0  0  0  0  0  0  0  0  0  0  0
    2.8852   -1.3539    1.0535 C   0  0  0  0  0  0  0  0  0  0  0  0
    3.4775    0.5496   -0.3477 C   0  0  0  0  0  0  0  0  0  0  0  0
    0.8544   -0.0720    0.6575 C   0  0  0  0  0  0  0  0  0  0  0  0
    0.1347   -0.3167    1.8905 O   0  0  0  0  0  0  0  0  0  0  0  0
    2.3932   -3.8693    0.5291 H   0  0  0  0  0  0  0  0  0  0  0  0
    2.2466   -3.8847   -1.0945 H   0  0  0  0  0  0  0  0  0  0  0  0
    3.8840   -2.3651   -0.5647 H   0  0  0  0  0  0  0  0  0  0  0  0
    1.2855   -1.4155   -1.8182 H   0  0  0  0  0  0  0  0  0  0  0  0
    2.8695   -1.6347   -2.4790 H   0  0  0  0  0  0  0  0  0  0  0  0
    3.1363    0.6004   -2.4763 H   0  0  0  0  0  0  0  0  0  0  0  0
    1.6785    2.2766   -1.6800 H   0  0  0  0  0  0  0  0  0  0  0  0
    0.5770    0.9306   -1.9844 H   0  0  0  0  0  0  0  0  0  0  0  0
    0.1208    3.3585    0.1646 H   0  0  0  0  0  0  0  0  0  0  0  0
   -0.4736    2.3752    1.4854 H   0  0  0  0  0  0  0  0  0  0  0  0
   -1.2054    2.0344   -1.4604 H   0  0  0  0  0  0  0  0  0  0  0  0
   -2.1788    2.8999   -0.3072 H   0  0  0  0  0  0  0  0  0  0  0  0
   -3.3219    1.0327   -1.7981 H   0  0  0  0  0  0  0  0  0  0  0  0
   -2.1154   -0.2506   -1.8353 H   0  0  0  0  0  0  0  0  0  0  0  0
   -4.0265   -1.5397   -1.6261 H   0  0  0  0  0  0  0  0  0  0  0  0
   -4.9273   -0.2580   -0.8218 H   0  0  0  0  0  0  0  0  0  0  0  0
   -2.7892   -2.0131    0.4674 H   0  0  0  0  0  0  0  0  0  0  0  0
   -4.5222   -2.1246    0.7523 H   0  0  0  0  0  0  0  0  0  0  0  0
   -2.9227   -0.7392    2.3876 H   0  0  0  0  0  0  0  0  0  0  0  0
   -4.5725   -0.2174    2.0857 H   0  0  0  0  0  0  0  0  0  0  0  0
   -2.6381    1.5325    1.9188 H   0  0  0  0  0  0  0  0  0  0  0  0
   -3.9596    1.6008    0.7566 H   0  0  0  0  0  0  0  0  0  0  0  0
    2.7330    2.3341    1.2811 H   0  0  0  0  0  0  0  0  0  0  0  0
    1.6861    1.4637    2.3883 H   0  0  0  0  0  0  0  0  0  0  0  0
    3.8979   -1.4309    1.4708 H   0  0  0  0  0  0  0  0  0  0  0  0
    2.2287   -1.8401    1.7838 H   0  0  0  0  0  0  0  0  0  0  0  0
    3.7878    1.6020   -0.2899 H   0  0  0  0  0  0  0  0  0  0  0  0
    4.4194   -0.0137   -0.3742 H   0  0  0  0  0  0  0  0  0  0  0  0
    0.4512   -0.7630   -0.0805 H   0  0  0  0  0  0  0  0  0  0  0  0
   -0.7963   -0.2504    1.6043 H   0  0  0  0  0  0  0  0  0  0  0  0
  2  1  1  0  0  0  0
  3  2  1  0  0  0  0
  4  3  1  0  0  0  0
  5  4  1  0  0  0  0
  6  5  1  0  0  0  0
  7  6  1  0  0  0  0
  8  7  1  0  0  0  0
  9  8  1  0  0  0  0
 10  9  1  0  0  0  0
 11 10  1  0  0  0  0
 12 11  1  0  0  0  0
 13 12  1  0  0  0  0
 14 13  1  0  0  0  0
 14  9  1  0  0  0  0
 15  6  1  0  0  0  0
 16 15  1  0  0  0  0
 17 16  1  0  0  0  0
 17  2  1  0  0  0  0
 18 16  1  0  0  0  0
 18  4  1  0  0  0  0
 19 16  1  0  0  0  0
 19  6  1  0  0  0  0
 20 19  1  0  0  0  0
  1 21  1  0  0  0  0
  1 22  1  0  0  0  0
  2 23  1  0  0  0  0
  3 24  1  0  0  0  0
  3 25  1  0  0  0  0
  4 26  1  0  0  0  0
  5 27  1  0  0  0  0
  5 28  1  0  0  0  0
  7 29  1  0  0  0  0
  7 30  1  0  0  0  0
  8 31  1  0  0  0  0
  8 32  1  0  0  0  0
 10 33  1  0  0  0  0
 10 34  1  0  0  0  0
 11 35  1  0  0  0  0
 11 36  1  0  0  0  0
 12 37  1  0  0  0  0
 12 38  1  0  0  0  0
 13 39  1  0  0  0  0
 13 40  1  0  0  0  0
 14 41  1  0  0  0  0
 14 42  1  0  0  0  0
 15 43  1  0  0  0  0
 15 44  1  0  0  0  0
 17 45  1  0  0  0  0
 17 46  1  0  0  0  0
 18 47  1  0  0  0  0
 18 48  1  0  0  0  0
 19 49  1  0  0  0  0
 20 50  1  0  0  0  0
M  END
>  <energy>
91.821982247407476

$$$$
