CCC1OCOc2n[n+]([O-])c(OC3OC(CN(CC(=O)O)C(=O)c4nc5c(NC=O)c(=O)n4NC(=N)N5)(C(=O)OC
                    3D

 74 78  0  0  0  0  0  0  0  0999 V2000
    0.9396    2.7256    1.6686 C   0  0  0  0  0  0  0  0  0  0  0  0
    2.1954    2.3168    2.4419 C   0  0  0  0  0  0  0  0  0  0  0  0
    3.4937    2.4018    1.6120 C   0  0  0  0  0  0  0  0  0  0  0  0
    3.6020    3.7443    1.1454 O   0  0  0  0  0  0  0  0  0  0  0  0
    4.3361    3.8365   -0.0644 C   0  0  0  0  0  0  0  0  0  0  0  0
    3.6915    3.1353   -1.1208 O   0  0  0  0  0  0  0  0  0  0  0  0
    3.5844    1.8097   -0.8109 C   0  0  0  0  0  0  0  0  0  0  0  0
    3.5609    1.0047   -1.8796 N   0  0  0  0  0  0  0  0  0  0  0  0
    3.5790   -0.3121   -1.6546 N   0  3  0  0  0  0  0  0  0  0  0  0
    3.6176   -1.0659   -2.6779 O   0  5  0  0  0  0  0  0  0  0  0  0
    3.6455   -0.8525   -0.3811 C   0  0  0  0  0  0  0  0  0  0  0  0
    3.8469   -2.2026   -0.1853 O   0  0  0  0  0  0  0  0  0  0  0  0
    2.6173   -2.8942    0.0100 C   0  0  0  0  0  0  0  0  0  0  0  0
    1.4074   -2.1242   -0.0063 O   0  0  0  0  0  0  0  0  0  0  0  0
    0.3431   -2.9656   -0.5091 C   0  0  0  0  0  0  0  0  0  0  0  0
   -0.7531   -3.0665    0.5814 C   0  0  0  0  0  0  0  0  0  0  0  0
   -1.3484   -1.7711    0.9498 N   0  0  0  0  0  0  0  0  0  0  0  0
   -0.6706   -1.0174    2.0197 C   0  0  0  0  0  0  0  0  0  0  0  0
   -1.0195   -1.5982    3.3853 C   0  0  0  0  0  0  0  0  0  0  0  0
   -2.1325   -1.9044    3.7855 O   0  0  0  0  0  0  0  0  0  0  0  0
    0.0792   -1.7939    4.1560 O   0  0  0  0  0  0  0  0  0  0  0  0
   -2.7073   -1.5723    0.6642 C   0  0  0  0  0  0  0  0  0  0  0  0
   -3.5035   -2.4856    0.4590 O   0  0  0  0  0  0  0  0  0  0  0  0
   -3.1681   -0.1517    0.3916 C   0  0  0  0  0  0  0  0  0  0  0  0
   -2.5372    0.9053    0.8200 N   0  0  0  0  0  0  0  0  0  0  0  0
   -3.1282    2.0453    0.2963 C   0  0  0  0  0  0  0  0  0  0  0  0
   -3.1087    2.0340   -1.0699 C   0  0  0  0  0  0  0  0  0  0  0  0
   -2.8820    3.1540   -1.8339 N   0  0  0  0  0  0  0  0  0  0  0  0
   -2.7051    3.1419   -3.2016 C   0  0  0  0  0  0  0  0  0  0  0  0
   -2.5934    2.1716   -3.9343 O   0  0  0  0  0  0  0  0  0  0  0  0
   -4.0259    0.8967   -1.5181 C   0  0  0  0  0  0  0  0  0  0  0  0
   -4.6810    0.9072   -2.5554 O   0  0  0  0  0  0  0  0  0  0  0  0
   -4.2381   -0.0409   -0.4943 N   0  0  0  0  0  0  0  0  0  0  0  0
   -5.4700    0.3700    0.2296 N   0  0  0  0  0  0  0  0  0  0  0  0
   -5.5221    1.6664    0.7374 C   0  0  0  0  0  0  0  0  0  0  0  0
   -6.6262    2.2491    1.0731 N   0  0  0  0  0  0  0  0  0  0  0  0
   -4.3468    2.3683    0.8956 N   0  0  0  0  0  0  0  0  0  0  0  0
   -0.3152   -2.4563   -1.8200 C   0  0  0  0  0  0  0  0  0  0  0  0
   -1.1758   -3.0830   -2.4332 O   0  0  0  0  0  0  0  0  0  0  0  0
    0.1494   -1.2212   -2.1775 O   0  0  0  0  0  0  0  0  0  0  0  0
   -0.2960   -0.7702   -3.4619 C   0  0  0  0  0  0  0  0  0  0  0  0
    0.9863   -4.3494   -0.7625 C   0  0  0  0  0  0  0  0  0  0  0  0
    2.4230   -3.9779   -1.0467 C   0  0  0  0  0  0  0  0  0  0  0  0
    2.4704   -3.5055   -2.3902 O   0  0  0  0  0  0  0  0  0  0  0  0
    3.6404    0.0076    0.7165 C   0  0  0  0  0  0  0  0  0  0  0  0
    3.7355   -0.5653    1.9593 O   0  0  0  0  0  0  0  0  0  0  0  0
    3.5603    1.3774    0.5090 C   0  0  0  0  0  0  0  0  0  0  0  0
    0.7534    2.0651    0.8155 H   0  0  0  0  0  0  0  0  0  0  0  0
    1.0127    3.7505    1.2964 H   0  0  0  0  0  0  0  0  0  0  0  0
    0.0607    2.6717    2.3243 H   0  0  0  0  0  0  0  0  0  0  0  0
    2.0439    1.3129    2.8503 H   0  0  0  0  0  0  0  0  0  0  0  0
    2.2854    2.9981    3.3006 H   0  0  0  0  0  0  0  0  0  0  0  0
    4.3473    2.2351    2.2783 H   0  0  0  0  0  0  0  0  0  0  0  0
    4.3648    4.8906   -0.3515 H   0  0  0  0  0  0  0  0  0  0  0  0
    5.3752    3.5074    0.0672 H   0  0  0  0  0  0  0  0  0  0  0  0
    2.6739   -3.3629    1.0051 H   0  0  0  0  0  0  0  0  0  0  0  0
   -1.5366   -3.7537    0.2463 H   0  0  0  0  0  0  0  0  0  0  0  0
   -0.3163   -3.4901    1.4968 H   0  0  0  0  0  0  0  0  0  0  0  0
   -0.9075    0.0425    2.0304 H   0  0  0  0  0  0  0  0  0  0  0  0
    0.4131   -1.1007    1.8816 H   0  0  0  0  0  0  0  0  0  0  0  0
   -0.2489   -2.2334    4.9694 H   0  0  0  0  0  0  0  0  0  0  0  0
   -2.5719    3.9945   -1.3595 H   0  0  0  0  0  0  0  0  0  0  0  0
   -2.5929    4.1727   -3.5858 H   0  0  0  0  0  0  0  0  0  0  0  0
   -6.2833    0.1067   -0.3226 H   0  0  0  0  0  0  0  0  0  0  0  0
   -7.4183    1.6110    0.9342 H   0  0  0  0  0  0  0  0  0  0  0  0
   -4.4611    3.3280    1.1847 H   0  0  0  0  0  0  0  0  0  0  0  0
    0.2590    0.1401   -3.7162 H   0  0  0  0  0  0  0  0  0  0  0  0
   -1.3638   -0.5283   -3.4238 H   0  0  0  0  0  0  0  0  0  0  0  0
   -0.0921   -1.5257   -4.2306 H   0  0  0  0  0  0  0  0  0  0  0  0
    0.5206   -4.9050   -1.5811 H   0  0  0  0  0  0  0  0  0  0  0  0
    0.9442   -4.9639    0.1490 H   0  0  0  0  0  0  0  0  0  0  0  0
    3.1304   -4.8037   -0.9485 H   0  0  0  0  0  0  0  0  0  0  0  0
    3.1198   -2.7644   -2.4810 H   0  0  0  0  0  0  0  0  0  0  0  0
    3.9380    0.0828    2.6525 H   0  0  0  0  0  0  0  0  0  0  0  0
  2  1  1  0  0  0  0
  3  2  1  0  0  0  0
  4  3  1  0  0  0  0
  5  4  1  0  0  0  0
  6  5  1  0  0  0  0
  7  6  1  0  0  0  0
  8  7  2  0  0  0  0
  9  8  1  0  0  0  0
 10  9  1  0  0  0  0
 11  9  2  0  0  0  0
 12 11  1  0  0  0  0
 13 12  1  0  0  0  0
 14 13  1  0  0  0  0
 15 14  1  0  0  0  0
 16 15  1  0  0  0  0
 17 16  1  0  0  0  0
 18 17  1  0  0  0  0
 19 18  1  0  0  0  0
 20 19  2  0  0  0  0
 21 19  1  0  0  0  0
 22 17  1  0  0  0  0
 23 22  2  0  0  0  0
 24 22  1  0  0  0  0
 25 24  2  0  0  0  0
 26 25  1  0  0  0  0
 27 26  2  0  0  0  0
 28 27  1  0  0  0  0
 29 28  1  0  0  0  0
 30 29  2  0  0  0  0
 31 27  1  0  0  0  0
 32 31  2  0  0  0  0
 33 31  1  0  0  0  0
 33 24  1  0  0  0  0
 34 33  1  0  0  0  0
 35 34  1  0  0  0  0
 36 35  2  0  0  0  0
 37 35  1  0  0  0  0
 37 26  1  0  0  0  0
 38 15  1  0  0  0  0
 39 38  2  0  0  0  0
 40 38  1  0  0  0  0
 41 40  1  0  0  0  0
 42 15  1  0  0  0  0
 43 42  1  0  0  0  0
 43 13  1  0  0  0  0
 44 43  1  0  0  0  0
 45 11  1  0  0  0  0
 46 45  1  0  0  0  0
 47 45  2  0  0  0  0
 47  7  1  0  0  0  0
 47  3  1  0  0  0  0
  1 48  1  0  0  0  0
  1 49  1  0  0  0  0
  1 50  1  0  0  0  0
  2 51  1  0  0  0  0
  2 52  1  0  0  0  0
  3 53  1  0  0  0  0
  5 54  1  0  0  0  0
  5 55  1  0  0  0  0
 13 56  1  0  0  0  0
 16 57  1  0  0  0  0
 16 58  1  0  0  0  0
 18 59  1  0  0  0  0
 18 60  1  0  0  0  0
 21 61  1  0  0  0  0
 28 62  1  0  0  0  0
 29 63  1  0  0  0  0
 34 64  1  0  0  0  0
 36 65  1  0  0  0  0
 37 66  1  0  0  0  0
 41 67  1  0  0  0  0
 41 68  1  0  0  0  0
 41 69  1  0  0  0  0
 42 70  1  0  0  0  0
 42 71  1  0  0  0  0
 43 72  1  0  0  0  0
 44 73  1  0  0  0  0
 46 74  1  0  0  0  0
M  CHG  2   9   1  10  -1
M  END
>  <energy>
157.32455371027379

$$$$
