CC12CC1(F)CC1C3NC4C3C(O)(C(F)F)C2(C)C(Br)CC1C41CCC[N+]1
                    3D

 54 59  0  0  0  0  0  0  0  0999 V2000
   -3.8054    0.3547   -0.8968 C   0  0  0  0  0  0  0  0  0  0  0  0
   -2.5275   -0.1794   -0.2110 C   0  0  0  0  0  0  0  0  0  0  0  0
   -2.7686   -1.3714    0.6934 C   0  0  0  0  0  0  0  0  0  0  0  0
   -2.2272   -1.6345   -0.6830 C   0  0  0  0  0  0  0  0  0  0  0  0
   -3.1950   -2.1331   -1.5671 F   0  0  0  0  0  0  0  0  0  0  0  0
   -0.9914   -2.4712   -0.7850 C   0  0  0  0  0  0  0  0  0  0  0  0
    0.3661   -1.9764   -0.3514 C   0  0  0  0  0  0  0  0  0  0  0  0
    0.4517   -1.6871    1.1418 C   0  0  0  0  0  0  0  0  0  0  0  0
    1.9183   -1.6734    1.5057 N   0  0  0  0  0  0  0  0  0  0  0  0
    1.8952   -0.2250    1.0624 C   0  0  0  0  0  0  0  0  0  0  0  0
    0.4320   -0.2221    1.6454 C   0  0  0  0  0  0  0  0  0  0  0  0
   -0.6244    0.8767    1.4904 C   0  0  0  0  0  0  0  0  0  0  0  0
    0.1300    2.0993    1.7148 O   0  0  0  0  0  0  0  0  0  0  0  0
   -1.5811    0.7974    2.7560 C   0  0  0  0  0  0  0  0  0  0  0  0
   -2.3680    1.8958    2.8771 F   0  0  0  0  0  0  0  0  0  0  0  0
   -0.8569    0.7601    3.9128 F   0  0  0  0  0  0  0  0  0  0  0  0
   -1.4363    0.9792    0.1047 C   0  0  0  0  0  0  0  0  0  0  0  0
   -2.2778    2.3362    0.2623 C   0  0  0  0  0  0  0  0  0  0  0  0
   -0.6119    1.2173   -1.2144 C   0  0  0  0  0  0  0  0  0  0  0  0
    0.5736    2.7933   -1.1787 Br  0  0  0  0  0  0  0  0  0  0  0  0
    0.0972    0.0832   -1.9427 C   0  0  0  0  0  0  0  0  0  0  0  0
    1.0267   -0.8795   -1.2092 C   0  0  0  0  0  0  0  0  0  0  0  0
    2.1606   -0.1730   -0.4485 C   0  0  0  0  0  0  0  0  0  0  0  0
    3.5590   -0.7608   -0.7810 C   0  0  0  0  0  0  0  0  0  0  0  0
    4.5093    0.4260   -0.6582 C   0  0  0  0  0  0  0  0  0  0  0  0
    3.6837    1.5957   -1.1653 C   0  0  0  0  0  0  0  0  0  0  0  0
    2.3020    1.2160   -0.8703 N   0  3  0  0  0  0  0  0  0  0  0  0
   -4.4914   -0.4454   -1.1971 H   0  0  0  0  0  0  0  0  0  0  0  0
   -3.5547    0.9096   -1.8059 H   0  0  0  0  0  0  0  0  0  0  0  0
   -4.3942    0.9833   -0.2237 H   0  0  0  0  0  0  0  0  0  0  0  0
   -2.1330   -1.6483    1.5168 H   0  0  0  0  0  0  0  0  0  0  0  0
   -3.7950   -1.6818    0.8772 H   0  0  0  0  0  0  0  0  0  0  0  0
   -0.9072   -2.7727   -1.8383 H   0  0  0  0  0  0  0  0  0  0  0  0
   -1.2031   -3.4097   -0.2534 H   0  0  0  0  0  0  0  0  0  0  0  0
    1.0077   -2.8623   -0.5070 H   0  0  0  0  0  0  0  0  0  0  0  0
   -0.1021   -2.4039    1.7568 H   0  0  0  0  0  0  0  0  0  0  0  0
    2.1001   -1.7818    2.5071 H   0  0  0  0  0  0  0  0  0  0  0  0
    2.5898    0.4113    1.6215 H   0  0  0  0  0  0  0  0  0  0  0  0
    0.5705   -0.2524    2.7449 H   0  0  0  0  0  0  0  0  0  0  0  0
    0.6119    2.3439    0.9052 H   0  0  0  0  0  0  0  0  0  0  0  0
   -2.2237   -0.0757    2.7749 H   0  0  0  0  0  0  0  0  0  0  0  0
   -3.1406    2.2067    0.9217 H   0  0  0  0  0  0  0  0  0  0  0  0
   -1.6918    3.1673    0.6656 H   0  0  0  0  0  0  0  0  0  0  0  0
   -2.6771    2.6913   -0.6948 H   0  0  0  0  0  0  0  0  0  0  0  0
   -1.3312    1.5737   -1.9658 H   0  0  0  0  0  0  0  0  0  0  0  0
   -0.6604   -0.5001   -2.4800 H   0  0  0  0  0  0  0  0  0  0  0  0
    0.6852    0.5199   -2.7651 H   0  0  0  0  0  0  0  0  0  0  0  0
    1.4846   -1.4296   -2.0462 H   0  0  0  0  0  0  0  0  0  0  0  0
    3.8718   -1.5925   -0.1434 H   0  0  0  0  0  0  0  0  0  0  0  0
    3.5917   -1.1122   -1.8191 H   0  0  0  0  0  0  0  0  0  0  0  0
    4.7732    0.5823    0.3931 H   0  0  0  0  0  0  0  0  0  0  0  0
    5.4338    0.2887   -1.2264 H   0  0  0  0  0  0  0  0  0  0  0  0
    3.7984    1.7123   -2.2479 H   0  0  0  0  0  0  0  0  0  0  0  0
    3.9531    2.5338   -0.6751 H   0  0  0  0  0  0  0  0  0  0  0  0
  2  1  1  0  0  0  0
  3  2  1  0  0  0  0
  4  3  1  0  0  0  0
  4  2  1  0  0  0  0
  5  4  1  0  0  0  0
  6  4  1  0  0  0  0
  7  6  1  0  0  0  0
  8  7  1  0  0  0  0
  9  8  1  0  0  0  0
 10  9  1  0  0  0  0
 11 10  1  0  0  0  0
 11  8  1  0  0  0  0
 12 11  1  0  0  0  0
 13 12  1  0  0  0  0
 14 12  1  0  0  0  0
 15 14  1  0  0  0  0
 16 14  1  0  0  0  0
 17 12  1  0  0  0  0
 17  2  1  0  0  0  0
 18 17  1  0  0  0  0
 19 17  1  0  0  0  0
 20 19  1  0  0  0  0
 21 19  1  0  0  0  0
 22 21  1  0  0  0  0
 22  7  1  0  0  0  0
 23 22  1  0  0  0  0
 23 10  1  0  0  0  0
 24 23  1  0  0  0  0
 25 24  1  0  0  0  0
 26 25  1  0  0  0  0
 27 26  1  0  0  0  0
 27 23  1  0  0  0  0
  1 28  1  0  0  0  0
  1 29  1  0  0  0  0
  1 30  1  0  0  0  0
  3 31  1  0  0  0  0
  3 32  1  0  0  0  0
  6 33  1  0  0  0  0
  6 34  1  0  0  0  0
  7 35  1  0  0  0  0
  8 36  1  0  0  0  0
  9 37  1  0  0  0  0
 10 38  1  0  0  0  0
 11 39  1  0  0  0  0
 13 40  1  0  0  0  0
 14 41  1  0  0  0  0
 18 42  1  0  0  0  0
 18 43  1  0  0  0  0
 18 44  1  0  0  0  0
 19 45  1  0  0  0  0
 21 46  1  0  0  0  0
 21 47  1  0  0  0  0
 22 48  1  0  0  0  0
 24 49  1  0  0  0  0
 24 50  1  0  0  0  0
 25 51  1  0  0  0  0
 25 52  1  0  0  0  0
 26 53  1  0  0  0  0
 26 54  1  0  0  0  0
M  CHG  1  27   1
M  RAD  1  27   3
M  END
>  <energy>
186.31064713207178

$$$$
