COC(=O)C12OCCOCCNCCOCCOCCOCCNC(NC1O)C(=O)NCc1onc2c1O
                    3D

 75 77  0  0  0  0  0  0  0  0999 V2000
    2.9304   -1.0968    4.3649 C   0  0  0  0  0  0  0  0  0  0  0  0
    2.3186   -1.4929    3.1324 O   0  0  0  0  0  0  0  0  0  0  0  0
    2.6772   -0.7471    2.0436 C   0  0  0  0  0  0  0  0  0  0  0  0
    3.4795    0.1878    2.1192 O   0  0  0  0  0  0  0  0  0  0  0  0
    1.9051   -1.1517    0.7589 C   0  0  0  0  0  0  0  0  0  0  0  0
    0.6363   -1.8252    1.0568 O   0  0  0  0  0  0  0  0  0  0  0  0
    0.7196   -3.2067    1.4437 C   0  0  0  0  0  0  0  0  0  0  0  0
   -0.2749   -3.4758    2.5761 C   0  0  0  0  0  0  0  0  0  0  0  0
   -1.6010   -3.6456    2.0692 O   0  0  0  0  0  0  0  0  0  0  0  0
   -2.5967   -2.9856    2.8627 C   0  0  0  0  0  0  0  0  0  0  0  0
   -2.7523   -1.5123    2.4393 C   0  0  0  0  0  0  0  0  0  0  0  0
   -3.3170   -1.4074    1.0877 N   0  0  0  0  0  0  0  0  0  0  0  0
   -4.6817   -0.8713    1.0754 C   0  0  0  0  0  0  0  0  0  0  0  0
   -5.3081   -0.9741   -0.3309 C   0  0  0  0  0  0  0  0  0  0  0  0
   -5.7717    0.2962   -0.7858 O   0  0  0  0  0  0  0  0  0  0  0  0
   -4.9847    0.8821   -1.8262 C   0  0  0  0  0  0  0  0  0  0  0  0
   -3.5607    1.2750   -1.4131 C   0  0  0  0  0  0  0  0  0  0  0  0
   -3.6089    2.0915   -0.2403 O   0  0  0  0  0  0  0  0  0  0  0  0
   -2.3484    2.6546    0.1275 C   0  0  0  0  0  0  0  0  0  0  0  0
   -1.9843    3.8483   -0.7564 C   0  0  0  0  0  0  0  0  0  0  0  0
   -1.1672    3.3903   -1.8455 O   0  0  0  0  0  0  0  0  0  0  0  0
    0.1631    3.9124   -1.7853 C   0  0  0  0  0  0  0  0  0  0  0  0
    1.0495    3.2265   -2.8500 C   0  0  0  0  0  0  0  0  0  0  0  0
    1.5581    1.8815   -2.4839 N   0  0  0  0  0  0  0  0  0  0  0  0
    2.6508    1.9374   -1.5127 C   0  0  0  0  0  0  0  0  0  0  0  0
    2.2806    1.3988   -0.2033 N   0  0  0  0  0  0  0  0  0  0  0  0
    1.4036    0.2584    0.0964 C   0  0  0  0  0  0  0  0  0  0  0  0
    0.4546    0.0198   -0.9524 O   0  0  0  0  0  0  0  0  0  0  0  0
    3.9596    1.2409   -2.0284 C   0  0  0  0  0  0  0  0  0  0  0  0
    5.0449    1.3689   -1.4536 O   0  0  0  0  0  0  0  0  0  0  0  0
    3.8121    0.3368   -3.0720 N   0  0  0  0  0  0  0  0  0  0  0  0
    4.6409   -0.8722   -3.0758 C   0  0  0  0  0  0  0  0  0  0  0  0
    4.0670   -1.7068   -1.9971 C   0  0  0  0  0  0  0  0  0  0  0  0
    3.0120   -2.4971   -2.3326 O   0  0  0  0  0  0  0  0  0  0  0  0
    2.1862   -2.6140   -1.2211 N   0  0  0  0  0  0  0  0  0  0  0  0
    2.7659   -1.8516   -0.2675 C   0  0  0  0  0  0  0  0  0  0  0  0
    4.0989   -1.5580   -0.6290 C   0  0  0  0  0  0  0  0  0  0  0  0
    4.9881   -0.8360    0.0696 O   0  0  0  0  0  0  0  0  0  0  0  0
    2.5774   -0.1065    4.6615 H   0  0  0  0  0  0  0  0  0  0  0  0
    2.6252   -1.8031    5.1396 H   0  0  0  0  0  0  0  0  0  0  0  0
    4.0208   -1.1194    4.2936 H   0  0  0  0  0  0  0  0  0  0  0  0
    0.4837   -3.8180    0.5654 H   0  0  0  0  0  0  0  0  0  0  0  0
    1.7273   -3.4561    1.7920 H   0  0  0  0  0  0  0  0  0  0  0  0
   -0.0136   -4.4103    3.0806 H   0  0  0  0  0  0  0  0  0  0  0  0
   -0.2277   -2.6661    3.3102 H   0  0  0  0  0  0  0  0  0  0  0  0
   -3.5490   -3.5109    2.7235 H   0  0  0  0  0  0  0  0  0  0  0  0
   -2.3460   -3.0588    3.9306 H   0  0  0  0  0  0  0  0  0  0  0  0
   -1.7629   -1.0370    2.4249 H   0  0  0  0  0  0  0  0  0  0  0  0
   -3.3583   -0.9697    3.1757 H   0  0  0  0  0  0  0  0  0  0  0  0
   -2.7207   -0.8071    0.5221 H   0  0  0  0  0  0  0  0  0  0  0  0
   -5.3053   -1.4575    1.7628 H   0  0  0  0  0  0  0  0  0  0  0  0
   -4.6861    0.1675    1.4245 H   0  0  0  0  0  0  0  0  0  0  0  0
   -4.6369   -1.4402   -1.0629 H   0  0  0  0  0  0  0  0  0  0  0  0
   -6.1925   -1.6193   -0.2728 H   0  0  0  0  0  0  0  0  0  0  0  0
   -5.5192    1.7880   -2.1295 H   0  0  0  0  0  0  0  0  0  0  0  0
   -4.9667    0.2129   -2.6935 H   0  0  0  0  0  0  0  0  0  0  0  0
   -2.9618    0.3844   -1.2039 H   0  0  0  0  0  0  0  0  0  0  0  0
   -3.0950    1.8195   -2.2422 H   0  0  0  0  0  0  0  0  0  0  0  0
   -1.5782    1.8815    0.1131 H   0  0  0  0  0  0  0  0  0  0  0  0
   -2.4679    2.9887    1.1608 H   0  0  0  0  0  0  0  0  0  0  0  0
   -2.8855    4.3007   -1.1851 H   0  0  0  0  0  0  0  0  0  0  0  0
   -1.4674    4.6199   -0.1684 H   0  0  0  0  0  0  0  0  0  0  0  0
    0.1010    4.9879   -2.0034 H   0  0  0  0  0  0  0  0  0  0  0  0
    0.5855    3.7811   -0.7823 H   0  0  0  0  0  0  0  0  0  0  0  0
    0.4576    3.0997   -3.7675 H   0  0  0  0  0  0  0  0  0  0  0  0
    1.8930    3.8871   -3.0973 H   0  0  0  0  0  0  0  0  0  0  0  0
    0.7905    1.3660   -2.0237 H   0  0  0  0  0  0  0  0  0  0  0  0
    2.9606    2.9804   -1.3479 H   0  0  0  0  0  0  0  0  0  0  0  0
    3.1275    1.3398    0.3745 H   0  0  0  0  0  0  0  0  0  0  0  0
    0.7690    0.6745    0.8851 H   0  0  0  0  0  0  0  0  0  0  0  0
    0.1759   -0.9155   -0.8621 H   0  0  0  0  0  0  0  0  0  0  0  0
    2.8369    0.2304   -3.3522 H   0  0  0  0  0  0  0  0  0  0  0  0
    5.6808   -0.6191   -2.8515 H   0  0  0  0  0  0  0  0  0  0  0  0
    4.5792   -1.3520   -4.0564 H   0  0  0  0  0  0  0  0  0  0  0  0
    5.5035   -0.2226   -0.4985 H   0  0  0  0  0  0  0  0  0  0  0  0
  2  1  1  0  0  0  0
  3  2  1  0  0  0  0
  4  3  2  0  0  0  0
  5  3  1  0  0  0  0
  6  5  1  0  0  0  0
  7  6  1  0  0  0  0
  8  7  1  0  0  0  0
  9  8  1  0  0  0  0
 10  9  1  0  0  0  0
 11 10  1  0  0  0  0
 12 11  1  0  0  0  0
 13 12  1  0  0  0  0
 14 13  1  0  0  0  0
 15 14  1  0  0  0  0
 16 15  1  0  0  0  0
 17 16  1  0  0  0  0
 18 17  1  0  0  0  0
 19 18  1  0  0  0  0
 20 19  1  0  0  0  0
 21 20  1  0  0  0  0
 22 21  1  0  0  0  0
 23 22  1  0  0  0  0
 24 23  1  0  0  0  0
 25 24  1  0  0  0  0
 26 25  1  0  0  0  0
 27 26  1  0  0  0  0
 27  5  1  0  0  0  0
 28 27  1  0  0  0  0
 29 25  1  0  0  0  0
 30 29  2  0  0  0  0
 31 29  1  0  0  0  0
 32 31  1  0  0  0  0
 33 32  1  0  0  0  0
 34 33  1  0  0  0  0
 35 34  1  0  0  0  0
 36 35  2  0  0  0  0
 36  5  1  0  0  0  0
 37 36  1  0  0  0  0
 37 33  2  0  0  0  0
 38 37  1  0  0  0  0
  1 39  1  0  0  0  0
  1 40  1  0  0  0  0
  1 41  1  0  0  0  0
  7 42  1  0  0  0  0
  7 43  1  0  0  0  0
  8 44  1  0  0  0  0
  8 45  1  0  0  0  0
 10 46  1  0  0  0  0
 10 47  1  0  0  0  0
 11 48  1  0  0  0  0
 11 49  1  0  0  0  0
 12 50  1  0  0  0  0
 13 51  1  0  0  0  0
 13 52  1  0  0  0  0
 14 53  1  0  0  0  0
 14 54  1  0  0  0  0
 16 55  1  0  0  0  0
 16 56  1  0  0  0  0
 17 57  1  0  0  0  0
 17 58  1  0  0  0  0
 19 59  1  0  0  0  0
 19 60  1  0  0  0  0
 20 61  1  0  0  0  0
 20 62  1  0  0  0  0
 22 63  1  0  0  0  0
 22 64  1  0  0  0  0
 23 65  1  0  0  0  0
 23 66  1  0  0  0  0
 24 67  1  0  0  0  0
 25 68  1  0  0  0  0
 26 69  1  0  0  0  0
 27 70  1  0  0  0  0
 28 71  1  0  0  0  0
 31 72  1  0  0  0  0
 32 73  1  0  0  0  0
 32 74  1  0  0  0  0
 38 75  1  0  0  0  0
M  END
>  <energy>
251.24080453588428

$$$$
