CC(O)C12C3C(O)(C1(O)O)C(F)(CBr)C32Cl
                    3D

 27 29  0  0  0  0  0  0  0  0999 V2000
   -2.6057    0.5901    1.0524 C   0  0  0  0  0  0  0  0  0  0  0  0
   -1.9011    0.7476   -0.2862 C   0  0  0  0  0  0  0  0  0  0  0  0
   -2.5597   -0.0580   -1.2644 O   0  0  0  0  0  0  0  0  0  0  0  0
   -0.4819    0.3213   -0.1993 C   0  0  0  0  0  0  0  0  0  0  0  0
    0.4822    0.5890   -1.2890 C   0  0  0  0  0  0  0  0  0  0  0  0
    1.3162   -0.5226   -0.8400 C   0  0  0  0  0  0  0  0  0  0  0  0
    2.0757   -1.2697   -1.8007 O   0  0  0  0  0  0  0  0  0  0  0  0
   -0.0599   -1.1239   -0.2200 C   0  0  0  0  0  0  0  0  0  0  0  0
   -0.7639   -2.0312   -1.0854 O   0  0  0  0  0  0  0  0  0  0  0  0
    0.0841   -1.7568    1.0549 O   0  0  0  0  0  0  0  0  0  0  0  0
    2.0220    0.5642    0.1048 C   0  0  0  0  0  0  0  0  0  0  0  0
    2.9984    1.2955   -0.4985 F   0  0  0  0  0  0  0  0  0  0  0  0
    2.4567    0.1930    1.5033 C   0  0  0  0  0  0  0  0  0  0  0  0
    3.8664   -1.1475    1.4168 Br  0  0  0  0  0  0  0  0  0  0  0  0
    0.6894    1.2602    0.0116 C   0  0  0  0  0  0  0  0  0  0  0  0
    0.5347    2.9653    0.1688 Cl  0  0  0  0  0  0  0  0  0  0  0  0
   -3.6580    0.8794    0.9704 H   0  0  0  0  0  0  0  0  0  0  0  0
   -2.1319    1.2045    1.8243 H   0  0  0  0  0  0  0  0  0  0  0  0
   -2.5950   -0.4532    1.3866 H   0  0  0  0  0  0  0  0  0  0  0  0
   -1.9826    1.7880   -0.6223 H   0  0  0  0  0  0  0  0  0  0  0  0
   -3.4656    0.2911   -1.3532 H   0  0  0  0  0  0  0  0  0  0  0  0
    0.3930    1.0013   -2.2634 H   0  0  0  0  0  0  0  0  0  0  0  0
    2.4476   -2.0157   -1.2959 H   0  0  0  0  0  0  0  0  0  0  0  0
   -1.4765   -1.4780   -1.4736 H   0  0  0  0  0  0  0  0  0  0  0  0
   -0.2269   -2.6582    0.8498 H   0  0  0  0  0  0  0  0  0  0  0  0
    1.6606   -0.2286    2.1178 H   0  0  0  0  0  0  0  0  0  0  0  0
    2.8817    1.0530    2.0305 H   0  0  0  0  0  0  0  0  0  0  0  0
  2  1  1  0  0  0  0
  3  2  1  0  0  0  0
  4  2  1  0  0  0  0
  5  4  1  0  0  0  0
  6  5  1  0  0  0  0
  7  6  1  0  0  0  0
  8  6  1  0  0  0  0
  8  4  1  0  0  0  0
  9  8  1  0  0  0  0
 10  8  1  0  0  0  0
 11  6  1  0  0  0  0
 12 11  1  0  0  0  0
 13 11  1  0  0  0  0
 14 13  1  0  0  0  0
 15 11  1  0  0  0  0
 15  5  1  0  0  0  0
 15  4  1  0  0  0  0
 16 15  1  0  0  0  0
  1 17  1  0  0  0  0
  1 18  1  0  0  0  0
  1 19  1  0  0  0  0
  2 20  1  0  0  0  0
  3 21  1  0  0  0  0
  5 22  1  0  0  0  0
  7 23  1  0  0  0  0
  9 24  1  0  0  0  0
 10 25  1  0  0  0  0
 13 26  1  0  0  0  0
 13 27  1  0  0  0  0
M  END
>  <energy>
26.737915218859968

$$$$
