CCCCCCNC(=O)C1C2C(CN2C(=O)CC2CCCC2)C(C(=O)N2CCCC2C(=O)NC)N1C(=O)C(=O)NC(=O)C1CC=
                    3D

 97101  0  0  0  0  0  0  0  0999 V2000
    4.2602   -3.0200   -0.3586 C   0  0  0  0  0  0  0  0  0  0  0  0
    4.4217   -2.9854    1.1508 C   0  0  0  0  0  0  0  0  0  0  0  0
    3.7651   -4.1735    1.8629 C   0  0  0  0  0  0  0  0  0  0  0  0
    2.2474   -4.0434    2.0205 C   0  0  0  0  0  0  0  0  0  0  0  0
    1.8406   -3.0421    3.1135 C   0  0  0  0  0  0  0  0  0  0  0  0
    0.3305   -2.8054    3.0976 C   0  0  0  0  0  0  0  0  0  0  0  0
    0.0341   -1.8603    2.0344 N   0  0  0  0  0  0  0  0  0  0  0  0
   -1.1197   -1.8761    1.2772 C   0  0  0  0  0  0  0  0  0  0  0  0
   -2.0105   -2.6942    1.4622 O   0  0  0  0  0  0  0  0  0  0  0  0
   -1.0648   -0.9152    0.0549 C   0  0  0  0  0  0  0  0  0  0  0  0
   -2.3246   -0.1696   -0.3607 C   0  0  0  0  0  0  0  0  0  0  0  0
   -2.3147    1.1338    0.4665 C   0  0  0  0  0  0  0  0  0  0  0  0
   -3.4045    0.5089    1.3596 C   0  0  0  0  0  0  0  0  0  0  0  0
   -3.5731   -0.4802    0.2988 N   0  0  0  0  0  0  0  0  0  0  0  0
   -4.7359   -1.1065   -0.0588 C   0  0  0  0  0  0  0  0  0  0  0  0
   -5.7705   -0.9633    0.5975 O   0  0  0  0  0  0  0  0  0  0  0  0
   -4.7263   -2.0038   -1.2826 C   0  0  0  0  0  0  0  0  0  0  0  0
   -4.6958   -3.4881   -0.8658 C   0  0  0  0  0  0  0  0  0  0  0  0
   -3.2911   -4.0911   -0.9713 C   0  0  0  0  0  0  0  0  0  0  0  0
   -3.1360   -4.5602   -2.4141 C   0  0  0  0  0  0  0  0  0  0  0  0
   -4.5435   -4.6149   -2.9974 C   0  0  0  0  0  0  0  0  0  0  0  0
   -5.4791   -4.3973   -1.8178 C   0  0  0  0  0  0  0  0  0  0  0  0
   -0.8730    1.3928    0.8981 C   0  0  0  0  0  0  0  0  0  0  0  0
   -0.5942    1.6114    2.3955 C   0  0  0  0  0  0  0  0  0  0  0  0
   -0.9901    0.7967    3.2305 O   0  0  0  0  0  0  0  0  0  0  0  0
    0.2135    2.6752    2.7393 N   0  0  0  0  0  0  0  0  0  0  0  0
    0.6688    2.8730    4.1009 C   0  0  0  0  0  0  0  0  0  0  0  0
    2.0730    3.4200    3.9304 C   0  0  0  0  0  0  0  0  0  0  0  0
    1.9898    4.2711    2.6682 C   0  0  0  0  0  0  0  0  0  0  0  0
    0.8851    3.6107    1.8336 C   0  0  0  0  0  0  0  0  0  0  0  0
   -0.0858    4.6822    1.2935 C   0  0  0  0  0  0  0  0  0  0  0  0
   -1.0928    5.0456    1.8920 O   0  0  0  0  0  0  0  0  0  0  0  0
    0.2764    5.2090    0.0668 N   0  0  0  0  0  0  0  0  0  0  0  0
   -0.5124    6.2408   -0.5642 C   0  0  0  0  0  0  0  0  0  0  0  0
   -0.1816    0.2140    0.3873 N   0  0  0  0  0  0  0  0  0  0  0  0
    1.1664    0.2730    0.1108 C   0  0  0  0  0  0  0  0  0  0  0  0
    2.0186    0.6288    0.9113 O   0  0  0  0  0  0  0  0  0  0  0  0
    1.5641    0.1662   -1.3736 C   0  0  0  0  0  0  0  0  0  0  0  0
    0.8284   -0.3442   -2.2017 O   0  0  0  0  0  0  0  0  0  0  0  0
    2.7508    0.8169   -1.6333 N   0  0  0  0  0  0  0  0  0  0  0  0
    2.5626    2.1278   -1.9769 C   0  0  0  0  0  0  0  0  0  0  0  0
    2.9017    3.0038   -1.1811 O   0  0  0  0  0  0  0  0  0  0  0  0
    1.8615    2.4065   -3.3012 C   0  0  0  0  0  0  0  0  0  0  0  0
    1.6100    3.9069   -3.5279 C   0  0  0  0  0  0  0  0  0  0  0  0
    2.5643    4.2691   -4.6177 C   0  0  0  0  0  0  0  0  0  0  0  0
    3.1612    3.1991   -5.1399 C   0  0  0  0  0  0  0  0  0  0  0  0
    2.7133    1.9294   -4.4883 C   0  0  0  0  0  0  0  0  0  0  0  0
    4.8363   -2.2116   -0.8115 H   0  0  0  0  0  0  0  0  0  0  0  0
    3.2169   -2.8951   -0.6537 H   0  0  0  0  0  0  0  0  0  0  0  0
    4.6250   -3.9616   -0.7733 H   0  0  0  0  0  0  0  0  0  0  0  0
    5.4929   -2.9958    1.3803 H   0  0  0  0  0  0  0  0  0  0  0  0
    4.0316   -2.0394    1.5344 H   0  0  0  0  0  0  0  0  0  0  0  0
    4.2182   -4.3015    2.8563 H   0  0  0  0  0  0  0  0  0  0  0  0
    3.9903   -5.0899    1.3029 H   0  0  0  0  0  0  0  0  0  0  0  0
    1.8431   -5.0264    2.2881 H   0  0  0  0  0  0  0  0  0  0  0  0
    1.7999   -3.7752    1.0573 H   0  0  0  0  0  0  0  0  0  0  0  0
    2.3661   -2.0887    2.9690 H   0  0  0  0  0  0  0  0  0  0  0  0
    2.1596   -3.4288    4.0905 H   0  0  0  0  0  0  0  0  0  0  0  0
   -0.2159   -3.7428    2.9576 H   0  0  0  0  0  0  0  0  0  0  0  0
    0.0011   -2.3625    4.0392 H   0  0  0  0  0  0  0  0  0  0  0  0
    0.4579   -0.9468    2.1487 H   0  0  0  0  0  0  0  0  0  0  0  0
   -0.6521   -1.5091   -0.7700 H   0  0  0  0  0  0  0  0  0  0  0  0
   -2.4083    0.0158   -1.4441 H   0  0  0  0  0  0  0  0  0  0  0  0
   -2.6986    1.9910   -0.1053 H   0  0  0  0  0  0  0  0  0  0  0  0
   -4.2714    1.1617    1.5161 H   0  0  0  0  0  0  0  0  0  0  0  0
   -3.1010    0.0446    2.2972 H   0  0  0  0  0  0  0  0  0  0  0  0
   -3.8990   -1.7510   -1.9493 H   0  0  0  0  0  0  0  0  0  0  0  0
   -5.6532   -1.7746   -1.8267 H   0  0  0  0  0  0  0  0  0  0  0  0
   -5.0807   -3.5989    0.1541 H   0  0  0  0  0  0  0  0  0  0  0  0
   -3.2160   -4.9549   -0.2985 H   0  0  0  0  0  0  0  0  0  0  0  0
   -2.4990   -3.3950   -0.7072 H   0  0  0  0  0  0  0  0  0  0  0  0
   -2.5169   -3.8589   -2.9847 H   0  0  0  0  0  0  0  0  0  0  0  0
   -2.6450   -5.5359   -2.4510 H   0  0  0  0  0  0  0  0  0  0  0  0
   -4.6752   -3.8144   -3.7316 H   0  0  0  0  0  0  0  0  0  0  0  0
   -4.7382   -5.5655   -3.5011 H   0  0  0  0  0  0  0  0  0  0  0  0
   -5.6636   -5.3601   -1.3228 H   0  0  0  0  0  0  0  0  0  0  0  0
   -6.4466   -3.9861   -2.1142 H   0  0  0  0  0  0  0  0  0  0  0  0
   -0.5046    2.2397    0.3118 H   0  0  0  0  0  0  0  0  0  0  0  0
    0.6493    1.9569    4.6913 H   0  0  0  0  0  0  0  0  0  0  0  0
    0.0145    3.6154    4.5716 H   0  0  0  0  0  0  0  0  0  0  0  0
    2.4128    3.9978    4.7924 H   0  0  0  0  0  0  0  0  0  0  0  0
    2.7755    2.5988    3.7617 H   0  0  0  0  0  0  0  0  0  0  0  0
    1.7371    5.3066    2.9200 H   0  0  0  0  0  0  0  0  0  0  0  0
    2.9435    4.2887    2.1262 H   0  0  0  0  0  0  0  0  0  0  0  0
    1.3220    3.0510    1.0049 H   0  0  0  0  0  0  0  0  0  0  0  0
    1.1084    4.8609   -0.4047 H   0  0  0  0  0  0  0  0  0  0  0  0
   -1.3552    6.5486    0.0673 H   0  0  0  0  0  0  0  0  0  0  0  0
   -0.9048    5.8558   -1.5112 H   0  0  0  0  0  0  0  0  0  0  0  0
    0.1233    7.1055   -0.7685 H   0  0  0  0  0  0  0  0  0  0  0  0
    3.2806    0.8633   -0.7618 H   0  0  0  0  0  0  0  0  0  0  0  0
    0.8957    1.8905   -3.2821 H   0  0  0  0  0  0  0  0  0  0  0  0
    1.7753    4.5285   -2.6437 H   0  0  0  0  0  0  0  0  0  0  0  0
    0.5842    4.0806   -3.8699 H   0  0  0  0  0  0  0  0  0  0  0  0
    2.7297    5.2899   -4.9454 H   0  0  0  0  0  0  0  0  0  0  0  0
    3.8711    3.2293   -5.9614 H   0  0  0  0  0  0  0  0  0  0  0  0
    3.5783    1.3359   -4.1799 H   0  0  0  0  0  0  0  0  0  0  0  0
    2.1160    1.3357   -5.1868 H   0  0  0  0  0  0  0  0  0  0  0  0
  2  1  1  0  0  0  0
  3  2  1  0  0  0  0
  4  3  1  0  0  0  0
  5  4  1  0  0  0  0
  6  5  1  0  0  0  0
  7  6  1  0  0  0  0
  8  7  1  0  0  0  0
  9  8  2  0  0  0  0
 10  8  1  0  0  0  0
 11 10  1  0  0  0  0
 12 11  1  0  0  0  0
 13 12  1  0  0  0  0
 14 13  1  0  0  0  0
 14 11  1  0  0  0  0
 15 14  1  0  0  0  0
 16 15  2  0  0  0  0
 17 15  1  0  0  0  0
 18 17  1  0  0  0  0
 19 18  1  0  0  0  0
 20 19  1  0  0  0  0
 21 20  1  0  0  0  0
 22 21  1  0  0  0  0
 22 18  1  0  0  0  0
 23 12  1  0  0  0  0
 24 23  1  0  0  0  0
 25 24  2  0  0  0  0
 26 24  1  0  0  0  0
 27 26  1  0  0  0  0
 28 27  1  0  0  0  0
 29 28  1  0  0  0  0
 30 29  1  0  0  0  0
 30 26  1  0  0  0  0
 31 30  1  0  0  0  0
 32 31  2  0  0  0  0
 33 31  1  0  0  0  0
 34 33  1  0  0  0  0
 35 23  1  0  0  0  0
 35 10  1  0  0  0  0
 36 35  1  0  0  0  0
 37 36  2  0  0  0  0
 38 36  1  0  0  0  0
 39 38  2  0  0  0  0
 40 38  1  0  0  0  0
 41 40  1  0  0  0  0
 42 41  2  0  0  0  0
 43 41  1  0  0  0  0
 44 43  1  0  0  0  0
 45 44  1  0  0  0  0
 46 45  2  0  0  0  0
 47 46  1  0  0  0  0
 47 43  1  0  0  0  0
  1 48  1  0  0  0  0
  1 49  1  0  0  0  0
  1 50  1  0  0  0  0
  2 51  1  0  0  0  0
  2 52  1  0  0  0  0
  3 53  1  0  0  0  0
  3 54  1  0  0  0  0
  4 55  1  0  0  0  0
  4 56  1  0  0  0  0
  5 57  1  0  0  0  0
  5 58  1  0  0  0  0
  6 59  1  0  0  0  0
  6 60  1  0  0  0  0
  7 61  1  0  0  0  0
 10 62  1  0  0  0  0
 11 63  1  0  0  0  0
 12 64  1  0  0  0  0
 13 65  1  0  0  0  0
 13 66  1  0  0  0  0
 17 67  1  0  0  0  0
 17 68  1  0  0  0  0
 18 69  1  0  0  0  0
 19 70  1  0  0  0  0
 19 71  1  0  0  0  0
 20 72  1  0  0  0  0
 20 73  1  0  0  0  0
 21 74  1  0  0  0  0
 21 75  1  0  0  0  0
 22 76  1  0  0  0  0
 22 77  1  0  0  0  0
 23 78  1  0  0  0  0
 27 79  1  0  0  0  0
 27 80  1  0  0  0  0
 28 81  1  0  0  0  0
 28 82  1  0  0  0  0
 29 83  1  0  0  0  0
 29 84  1  0  0  0  0
 30 85  1  0  0  0  0
 33 86  1  0  0  0  0
 34 87  1  0  0  0  0
 34 88  1  0  0  0  0
 34 89  1  0  0  0  0
 40 90  1  0  0  0  0
 43 91  1  0  0  0  0
 44 92  1  0  0  0  0
 44 93  1  0  0  0  0
 45 94  1  0  0  0  0
 46 95  1  0  0  0  0
 47 96  1  0  0  0  0
 47 97  1  0  0  0  0
M  END
>  <energy>
77.291578720303249

$$$$
