CC(C)=c1c(C(C)C)c(C=O)n(C)c(=O)c1=C(C)C
                    3D

 42 42  0  0  0  0  0  0  0  0999 V2000
   -2.8061    0.8368    0.8384 C   0  0  0  0  0  0  0  0  0  0  0  0
   -1.4974    1.2641    0.2015 C   0  0  0  0  0  0  0  0  0  0  0  0
   -1.4297    2.7591   -0.0312 C   0  0  0  0  0  0  0  0  0  0  0  0
   -0.4426    0.4343   -0.0183 C   0  0  0  0  0  0  0  0  0  0  0  0
   -0.4599   -0.9888    0.3500 C   0  0  0  0  0  0  0  0  0  0  0  0
   -1.2302   -1.9959   -0.5169 C   0  0  0  0  0  0  0  0  0  0  0  0
   -0.2796   -3.0534   -1.1165 C   0  0  0  0  0  0  0  0  0  0  0  0
   -2.0160   -1.4059   -1.7026 C   0  0  0  0  0  0  0  0  0  0  0  0
    0.3316   -1.2959    1.4088 C   0  0  0  0  0  0  0  0  0  0  0  0
    0.2676   -2.6643    2.0267 C   0  0  0  0  0  0  0  0  0  0  0  0
   -0.7700   -3.2967    2.1834 O   0  0  0  0  0  0  0  0  0  0  0  0
    1.2591   -0.3629    1.9218 N   0  0  0  0  0  0  0  0  0  0  0  0
    1.9277   -0.6219    3.1839 C   0  0  0  0  0  0  0  0  0  0  0  0
    1.6075    0.8243    1.2336 C   0  0  0  0  0  0  0  0  0  0  0  0
    2.3864    1.6680    1.6628 O   0  0  0  0  0  0  0  0  0  0  0  0
    0.9139    0.9839   -0.1077 C   0  0  0  0  0  0  0  0  0  0  0  0
    1.5057    1.5145   -1.2041 C   0  0  0  0  0  0  0  0  0  0  0  0
    0.8417    1.6130   -2.5566 C   0  0  0  0  0  0  0  0  0  0  0  0
    2.9193    2.0520   -1.2077 C   0  0  0  0  0  0  0  0  0  0  0  0
   -2.8531   -0.2227    1.1073 H   0  0  0  0  0  0  0  0  0  0  0  0
   -2.9579    1.4022    1.7665 H   0  0  0  0  0  0  0  0  0  0  0  0
   -3.6451    1.0507    0.1714 H   0  0  0  0  0  0  0  0  0  0  0  0
   -0.8827    3.0090   -0.9431 H   0  0  0  0  0  0  0  0  0  0  0  0
   -2.4310    3.1847   -0.1616 H   0  0  0  0  0  0  0  0  0  0  0  0
   -0.9559    3.2614    0.8170 H   0  0  0  0  0  0  0  0  0  0  0  0
   -1.9686   -2.4990    0.1189 H   0  0  0  0  0  0  0  0  0  0  0  0
   -0.8376   -3.7904   -1.7036 H   0  0  0  0  0  0  0  0  0  0  0  0
    0.2676   -3.6152   -0.3580 H   0  0  0  0  0  0  0  0  0  0  0  0
    0.4590   -2.5896   -1.7796 H   0  0  0  0  0  0  0  0  0  0  0  0
   -2.4250   -2.2010   -2.3343 H   0  0  0  0  0  0  0  0  0  0  0  0
   -2.8684   -0.8088   -1.3713 H   0  0  0  0  0  0  0  0  0  0  0  0
   -1.3815   -0.7891   -2.3443 H   0  0  0  0  0  0  0  0  0  0  0  0
    1.2342   -3.0813    2.3501 H   0  0  0  0  0  0  0  0  0  0  0  0
    2.4083    0.2742    3.5850 H   0  0  0  0  0  0  0  0  0  0  0  0
    2.6934   -1.3870    3.0284 H   0  0  0  0  0  0  0  0  0  0  0  0
    1.2010   -0.9764    3.9203 H   0  0  0  0  0  0  0  0  0  0  0  0
   -0.1582    1.1756   -2.5849 H   0  0  0  0  0  0  0  0  0  0  0  0
    1.4428    1.0954   -3.3115 H   0  0  0  0  0  0  0  0  0  0  0  0
    0.7572    2.6638   -2.8505 H   0  0  0  0  0  0  0  0  0  0  0  0
    3.3941    1.8845   -2.1822 H   0  0  0  0  0  0  0  0  0  0  0  0
    2.9119    3.1312   -1.0170 H   0  0  0  0  0  0  0  0  0  0  0  0
    3.5666    1.5636   -0.4723 H   0  0  0  0  0  0  0  0  0  0  0  0
  2  1  1  0  0  0  0
  3  2  1  0  0  0  0
  4  2  2  0  0  0  0
  5  4  1  0  0  0  0
  6  5  1  0  0  0  0
  7  6  1  0  0  0  0
  8  6  1  0  0  0  0
  9  5  2  0  0  0  0
 10  9  1  0  0  0  0
 11 10  2  0  0  0  0
 12  9  1  0  0  0  0
 13 12  1  0  0  0  0
 14 12  1  0  0  0  0
 15 14  2  0  0  0  0
 16 14  1  0  0  0  0
 16  4  1  0  0  0  0
 17 16  2  0  0  0  0
 18 17  1  0  0  0  0
 19 17  1  0  0  0  0
  1 20  1  0  0  0  0
  1 21  1  0  0  0  0
  1 22  1  0  0  0  0
  3 23  1  0  0  0  0
  3 24  1  0  0  0  0
  3 25  1  0  0  0  0
  6 26  1  0  0  0  0
  7 27  1  0  0  0  0
  7 28  1  0  0  0  0
  7 29  1  0  0  0  0
  8 30  1  0  0  0  0
  8 31  1  0  0  0  0
  8 32  1  0  0  0  0
 10 33  1  0  0  0  0
 13 34  1  0  0  0  0
 13 35  1  0  0  0  0
 13 36  1  0  0  0  0
 18 37  1  0  0  0  0
 18 38  1  0  0  0  0
 18 39  1  0  0  0  0
 19 40  1  0  0  0  0
 19 41  1  0  0  0  0
 19 42  1  0  0  0  0
M  END
>  <energy>
82.876894473376723

$$$$
