NC(F)(F)OCC1CC23c4c5ccc(O)c4OC(C(Cl)(Cl)C12)C31CCN(CC2CC2)C1C5
                    3D

 58 64  0  0  0  0  0  0  0  0999 V2000
    2.5123   -4.1241   -3.6687 N   0  0  0  0  0  0  0  0  0  0  0  0
    2.7674   -2.7388   -3.8915 C   0  0  0  0  0  0  0  0  0  0  0  0
    2.0265   -2.2954   -4.9226 F   0  0  0  0  0  0  0  0  0  0  0  0
    4.0705   -2.5572   -4.1701 F   0  0  0  0  0  0  0  0  0  0  0  0
    2.4205   -2.0099   -2.7414 O   0  0  0  0  0  0  0  0  0  0  0  0
    2.8094   -0.6464   -2.8479 C   0  0  0  0  0  0  0  0  0  0  0  0
    2.1758    0.1377   -1.7063 C   0  0  0  0  0  0  0  0  0  0  0  0
    0.5923    0.1150   -1.6315 C   0  0  0  0  0  0  0  0  0  0  0  0
    0.7867    0.3828   -0.1054 C   0  0  0  0  0  0  0  0  0  0  0  0
    0.7356    2.1167    0.3462 C   0  0  0  0  0  0  0  0  0  0  0  0
   -0.4987    2.7249    0.1926 C   0  0  0  0  0  0  0  0  0  0  0  0
   -0.7257    4.0734    0.5133 C   0  0  0  0  0  0  0  0  0  0  0  0
    0.2078    4.7327    1.3139 C   0  0  0  0  0  0  0  0  0  0  0  0
    1.1974    3.9736    1.9225 C   0  0  0  0  0  0  0  0  0  0  0  0
    1.9241    4.4595    2.9654 O   0  0  0  0  0  0  0  0  0  0  0  0
    1.3566    2.6476    1.5193 C   0  0  0  0  0  0  0  0  0  0  0  0
    1.8500    1.7082    2.4800 O   0  0  0  0  0  0  0  0  0  0  0  0
    1.8409    0.3991    1.8642 C   0  0  0  0  0  0  0  0  0  0  0  0
    2.9004   -0.4685    1.0641 C   0  0  0  0  0  0  0  0  0  0  0  0
    3.2051   -2.0713    1.7791 Cl  0  0  0  0  0  0  0  0  0  0  0  0
    4.5305    0.2723    0.8036 Cl  0  0  0  0  0  0  0  0  0  0  0  0
    2.1303   -0.5400   -0.2933 C   0  0  0  0  0  0  0  0  0  0  0  0
    0.3303   -0.0681    1.2618 C   0  0  0  0  0  0  0  0  0  0  0  0
    0.0428   -1.5624    1.4816 C   0  0  0  0  0  0  0  0  0  0  0  0
   -1.3822   -1.6555    1.9934 C   0  0  0  0  0  0  0  0  0  0  0  0
   -2.0091   -0.5450    1.3166 N   0  0  0  0  0  0  0  0  0  0  0  0
   -3.4076   -0.3466    1.6733 C   0  0  0  0  0  0  0  0  0  0  0  0
   -4.3015   -0.6184    0.4877 C   0  0  0  0  0  0  0  0  0  0  0  0
   -4.6293   -2.0404    0.0898 C   0  0  0  0  0  0  0  0  0  0  0  0
   -3.8109   -1.1866   -0.8327 C   0  0  0  0  0  0  0  0  0  0  0  0
   -1.1113    0.6150    1.4538 C   0  0  0  0  0  0  0  0  0  0  0  0
   -1.5814    1.6765    0.3404 C   0  0  0  0  0  0  0  0  0  0  0  0
    3.1654   -4.3974   -2.9423 H   0  0  0  0  0  0  0  0  0  0  0  0
    1.5959   -4.1391   -3.2354 H   0  0  0  0  0  0  0  0  0  0  0  0
    2.4960   -0.2213   -3.8089 H   0  0  0  0  0  0  0  0  0  0  0  0
    3.8992   -0.5845   -2.7792 H   0  0  0  0  0  0  0  0  0  0  0  0
    2.5811    1.1600   -1.6897 H   0  0  0  0  0  0  0  0  0  0  0  0
    0.0999    0.9020   -2.2083 H   0  0  0  0  0  0  0  0  0  0  0  0
    0.1064   -0.8404   -1.8584 H   0  0  0  0  0  0  0  0  0  0  0  0
   -1.6791    4.5470    0.2940 H   0  0  0  0  0  0  0  0  0  0  0  0
    0.0331    5.7670    1.5964 H   0  0  0  0  0  0  0  0  0  0  0  0
    1.6517    5.3739    3.1435 H   0  0  0  0  0  0  0  0  0  0  0  0
    2.3397    0.9979    1.1079 H   0  0  0  0  0  0  0  0  0  0  0  0
    1.8996   -1.6078   -0.4396 H   0  0  0  0  0  0  0  0  0  0  0  0
    0.1238   -2.1431    0.5578 H   0  0  0  0  0  0  0  0  0  0  0  0
    0.6739   -2.0140    2.2473 H   0  0  0  0  0  0  0  0  0  0  0  0
   -1.4152   -1.5396    3.0845 H   0  0  0  0  0  0  0  0  0  0  0  0
   -1.8287   -2.6193    1.7302 H   0  0  0  0  0  0  0  0  0  0  0  0
   -3.5914    0.6788    2.0168 H   0  0  0  0  0  0  0  0  0  0  0  0
   -3.7186   -0.9844    2.5117 H   0  0  0  0  0  0  0  0  0  0  0  0
   -5.1201    0.0940    0.4487 H   0  0  0  0  0  0  0  0  0  0  0  0
   -5.6483   -2.2659   -0.2074 H   0  0  0  0  0  0  0  0  0  0  0  0
   -4.1301   -2.8551    0.6013 H   0  0  0  0  0  0  0  0  0  0  0  0
   -2.7633   -1.4394   -0.9538 H   0  0  0  0  0  0  0  0  0  0  0  0
   -4.2706   -0.8163   -1.7419 H   0  0  0  0  0  0  0  0  0  0  0  0
   -1.1715    1.0534    2.4603 H   0  0  0  0  0  0  0  0  0  0  0  0
   -1.7590    1.1890   -0.6261 H   0  0  0  0  0  0  0  0  0  0  0  0
   -2.5256    2.1442    0.6395 H   0  0  0  0  0  0  0  0  0  0  0  0
  2  1  1  0  0  0  0
  3  2  1  0  0  0  0
  4  2  1  0  0  0  0
  5  2  1  0  0  0  0
  6  5  1  0  0  0  0
  7  6  1  0  0  0  0
  8  7  1  0  0  0  0
  9  8  1  0  0  0  0
 10  9  1  0  0  0  0
 11 10  2  0  0  0  0
 12 11  1  0  0  0  0
 13 12  2  0  0  0  0
 14 13  1  0  0  0  0
 15 14  1  0  0  0  0
 16 14  2  0  0  0  0
 16 10  1  0  0  0  0
 17 16  1  0  0  0  0
 18 17  1  0  0  0  0
 19 18  1  0  0  0  0
 20 19  1  0  0  0  0
 21 19  1  0  0  0  0
 22 19  1  0  0  0  0
 22  7  1  0  0  0  0
 22  9  1  0  0  0  0
 23 18  1  0  0  0  0
 23  9  1  0  0  0  0
 24 23  1  0  0  0  0
 25 24  1  0  0  0  0
 26 25  1  0  0  0  0
 27 26  1  0  0  0  0
 28 27  1  0  0  0  0
 29 28  1  0  0  0  0
 30 29  1  0  0  0  0
 30 28  1  0  0  0  0
 31 26  1  0  0  0  0
 31 23  1  0  0  0  0
 32 31  1  0  0  0  0
 32 11  1  0  0  0  0
  1 33  1  0  0  0  0
  1 34  1  0  0  0  0
  6 35  1  0  0  0  0
  6 36  1  0  0  0  0
  7 37  1  0  0  0  0
  8 38  1  0  0  0  0
  8 39  1  0  0  0  0
 12 40  1  0  0  0  0
 13 41  1  0  0  0  0
 15 42  1  0  0  0  0
 18 43  1  0  0  0  0
 22 44  1  0  0  0  0
 24 45  1  0  0  0  0
 24 46  1  0  0  0  0
 25 47  1  0  0  0  0
 25 48  1  0  0  0  0
 27 49  1  0  0  0  0
 27 50  1  0  0  0  0
 28 51  1  0  0  0  0
 29 52  1  0  0  0  0
 29 53  1  0  0  0  0
 30 54  1  0  0  0  0
 30 55  1  0  0  0  0
 31 56  1  0  0  0  0
 32 57  1  0  0  0  0
 32 58  1  0  0  0  0
M  END
>  <energy>
220.62603196043736

$$$$
