C#CC=CC=CC12CC3(OC(C(=CC)C(=O)NC(C)C)C(OC(=O)CC[N+](=O)[O-])C31O)C(OC(=O)C(C)C)C
                    3D

 81 83  0  0  0  0  0  0  0  0999 V2000
    5.6714    4.9420    0.5240 C   0  0  0  0  0  0  0  0  0  0  0  0
    5.6249    4.0910    1.3633 C   0  0  0  0  0  0  0  0  0  0  0  0
    5.4292    3.0766    2.3545 C   0  0  0  0  0  0  0  0  0  0  0  0
    4.4401    2.1673    2.2799 C   0  0  0  0  0  0  0  0  0  0  0  0
    3.5561    2.0237    1.1471 C   0  0  0  0  0  0  0  0  0  0  0  0
    2.2714    1.6760    1.2278 C   0  0  0  0  0  0  0  0  0  0  0  0
    1.3990    1.6546    0.0336 C   0  0  0  0  0  0  0  0  0  0  0  0
    1.5891    0.5957   -1.0817 C   0  0  0  0  0  0  0  0  0  0  0  0
    0.0719    0.9438   -1.2815 C   0  0  0  0  0  0  0  0  0  0  0  0
   -0.8061   -0.0315   -1.8557 O   0  0  0  0  0  0  0  0  0  0  0  0
   -0.7593   -1.2044   -0.9973 C   0  0  0  0  0  0  0  0  0  0  0  0
    0.0756   -2.2495   -1.6991 C   0  0  0  0  0  0  0  0  0  0  0  0
    0.1630   -2.4708   -3.0299 C   0  0  0  0  0  0  0  0  0  0  0  0
   -0.8585   -1.9965   -4.0114 C   0  0  0  0  0  0  0  0  0  0  0  0
    0.4485   -3.4077   -0.8427 C   0  0  0  0  0  0  0  0  0  0  0  0
    1.1592   -3.2695    0.1343 O   0  0  0  0  0  0  0  0  0  0  0  0
   -0.2631   -4.5612   -1.1657 N   0  0  0  0  0  0  0  0  0  0  0  0
   -0.7449   -5.4616   -0.1154 C   0  0  0  0  0  0  0  0  0  0  0  0
    0.3376   -6.0266    0.8129 C   0  0  0  0  0  0  0  0  0  0  0  0
   -1.5760   -6.6126   -0.7010 C   0  0  0  0  0  0  0  0  0  0  0  0
   -0.5032   -0.5698    0.4188 C   0  0  0  0  0  0  0  0  0  0  0  0
    0.2616   -1.1883    1.4500 O   0  0  0  0  0  0  0  0  0  0  0  0
   -0.4468   -1.9775    2.3016 C   0  0  0  0  0  0  0  0  0  0  0  0
   -1.4864   -2.5650    2.0305 O   0  0  0  0  0  0  0  0  0  0  0  0
    0.1343   -1.9142    3.6874 C   0  0  0  0  0  0  0  0  0  0  0  0
   -1.0296   -1.6434    4.6348 C   0  0  0  0  0  0  0  0  0  0  0  0
   -0.5334   -0.8506    5.8004 N   0  3  0  0  0  0  0  0  0  0  0  0
    0.0386   -1.4772    6.7043 O   0  0  0  0  0  0  0  0  0  0  0  0
   -0.7275    0.3734    5.7769 O   0  5  0  0  0  0  0  0  0  0  0  0
   -0.0202    0.9076    0.2635 C   0  0  0  0  0  0  0  0  0  0  0  0
   -1.0026    1.7171    0.9737 O   0  0  0  0  0  0  0  0  0  0  0  0
   -0.0170    2.4100   -1.7348 C   0  0  0  0  0  0  0  0  0  0  0  0
   -1.3504    2.8791   -1.4639 O   0  0  0  0  0  0  0  0  0  0  0  0
   -2.2161    2.8025   -2.5178 C   0  0  0  0  0  0  0  0  0  0  0  0
   -1.8944    2.5439   -3.6728 O   0  0  0  0  0  0  0  0  0  0  0  0
   -3.6705    2.9419   -2.0836 C   0  0  0  0  0  0  0  0  0  0  0  0
   -4.2010    1.5472   -1.7470 C   0  0  0  0  0  0  0  0  0  0  0  0
   -3.8864    3.9130   -0.9234 C   0  0  0  0  0  0  0  0  0  0  0  0
    1.0731    2.9889   -0.7483 C   0  0  0  0  0  0  0  0  0  0  0  0
    0.6089    4.1299    0.1651 C   0  0  0  0  0  0  0  0  0  0  0  0
    2.2952    3.5185   -1.5314 C   0  0  0  0  0  0  0  0  0  0  0  0
    5.6495    5.6761   -0.2547 H   0  0  0  0  0  0  0  0  0  0  0  0
    6.0788    3.1001    3.2236 H   0  0  0  0  0  0  0  0  0  0  0  0
    4.2986    1.4685    3.1091 H   0  0  0  0  0  0  0  0  0  0  0  0
    4.0013    2.2412    0.1731 H   0  0  0  0  0  0  0  0  0  0  0  0
    1.8014    1.4889    2.1977 H   0  0  0  0  0  0  0  0  0  0  0  0
    2.2272    0.8431   -1.9343 H   0  0  0  0  0  0  0  0  0  0  0  0
    1.8763   -0.4050   -0.7442 H   0  0  0  0  0  0  0  0  0  0  0  0
   -1.7671   -1.6366   -0.9767 H   0  0  0  0  0  0  0  0  0  0  0  0
    0.8396   -3.2189   -3.4320 H   0  0  0  0  0  0  0  0  0  0  0  0
   -1.1381   -2.8736   -4.6120 H   0  0  0  0  0  0  0  0  0  0  0  0
   -1.7761   -1.6516   -3.5079 H   0  0  0  0  0  0  0  0  0  0  0  0
   -0.5199   -1.2217   -4.6986 H   0  0  0  0  0  0  0  0  0  0  0  0
   -0.9075   -4.4392   -1.9393 H   0  0  0  0  0  0  0  0  0  0  0  0
   -1.4308   -4.8477    0.4861 H   0  0  0  0  0  0  0  0  0  0  0  0
    1.0437   -6.6756    0.2790 H   0  0  0  0  0  0  0  0  0  0  0  0
   -0.1342   -6.6124    1.6101 H   0  0  0  0  0  0  0  0  0  0  0  0
    0.9124   -5.2441    1.3108 H   0  0  0  0  0  0  0  0  0  0  0  0
   -0.9496   -7.3488   -1.2252 H   0  0  0  0  0  0  0  0  0  0  0  0
   -2.1034   -7.1310    0.1066 H   0  0  0  0  0  0  0  0  0  0  0  0
   -2.3327   -6.2479   -1.4040 H   0  0  0  0  0  0  0  0  0  0  0  0
   -1.5345   -0.4844    0.8017 H   0  0  0  0  0  0  0  0  0  0  0  0
    0.6437   -2.8607    3.9051 H   0  0  0  0  0  0  0  0  0  0  0  0
    0.8808   -1.1084    3.7457 H   0  0  0  0  0  0  0  0  0  0  0  0
   -1.4670   -2.5650    5.0310 H   0  0  0  0  0  0  0  0  0  0  0  0
   -1.8436   -1.0584    4.1825 H   0  0  0  0  0  0  0  0  0  0  0  0
   -1.5455    2.1527    0.2864 H   0  0  0  0  0  0  0  0  0  0  0  0
    0.2644    2.5407   -2.7844 H   0  0  0  0  0  0  0  0  0  0  0  0
   -4.2182    3.3403   -2.9481 H   0  0  0  0  0  0  0  0  0  0  0  0
   -4.0942    0.8763   -2.6042 H   0  0  0  0  0  0  0  0  0  0  0  0
   -3.6476    1.1060   -0.9107 H   0  0  0  0  0  0  0  0  0  0  0  0
   -5.2597    1.5906   -1.4809 H   0  0  0  0  0  0  0  0  0  0  0  0
   -4.9558    4.0208   -0.7158 H   0  0  0  0  0  0  0  0  0  0  0  0
   -3.4893    4.9013   -1.1719 H   0  0  0  0  0  0  0  0  0  0  0  0
   -3.4008    3.5702   -0.0051 H   0  0  0  0  0  0  0  0  0  0  0  0
    0.3022    4.9943   -0.4358 H   0  0  0  0  0  0  0  0  0  0  0  0
    1.4252    4.4570    0.8240 H   0  0  0  0  0  0  0  0  0  0  0  0
   -0.2244    3.8718    0.8162 H   0  0  0  0  0  0  0  0  0  0  0  0
    2.9938    4.0164   -0.8462 H   0  0  0  0  0  0  0  0  0  0  0  0
    2.8662    2.7443   -2.0618 H   0  0  0  0  0  0  0  0  0  0  0  0
    1.9792    4.2649   -2.2745 H   0  0  0  0  0  0  0  0  0  0  0  0
  2  1  3  0  0  0  0
  3  2  1  0  0  0  0
  4  3  2  0  0  0  0
  5  4  1  0  0  0  0
  6  5  2  0  0  0  0
  7  6  1  0  0  0  0
  8  7  1  0  0  0  0
  9  8  1  0  0  0  0
 10  9  1  0  0  0  0
 11 10  1  0  0  0  0
 12 11  1  0  0  0  0
 13 12  2  0  0  0  0
 14 13  1  0  0  0  0
 15 12  1  0  0  0  0
 16 15  2  0  0  0  0
 17 15  1  0  0  0  0
 18 17  1  0  0  0  0
 19 18  1  0  0  0  0
 20 18  1  0  0  0  0
 21 11  1  0  0  0  0
 22 21  1  0  0  0  0
 23 22  1  0  0  0  0
 24 23  2  0  0  0  0
 25 23  1  0  0  0  0
 26 25  1  0  0  0  0
 27 26  1  0  0  0  0
 28 27  2  0  0  0  0
 29 27  1  0  0  0  0
 30 21  1  0  0  0  0
 30  9  1  0  0  0  0
 30  7  1  0  0  0  0
 31 30  1  0  0  0  0
 32  9  1  0  0  0  0
 33 32  1  0  0  0  0
 34 33  1  0  0  0  0
 35 34  2  0  0  0  0
 36 34  1  0  0  0  0
 37 36  1  0  0  0  0
 38 36  1  0  0  0  0
 39 32  1  0  0  0  0
 39  7  1  0  0  0  0
 40 39  1  0  0  0  0
 41 39  1  0  0  0  0
  1 42  1  0  0  0  0
  3 43  1  0  0  0  0
  4 44  1  0  0  0  0
  5 45  1  0  0  0  0
  6 46  1  0  0  0  0
  8 47  1  0  0  0  0
  8 48  1  0  0  0  0
 11 49  1  0  0  0  0
 13 50  1  0  0  0  0
 14 51  1  0  0  0  0
 14 52  1  0  0  0  0
 14 53  1  0  0  0  0
 17 54  1  0  0  0  0
 18 55  1  0  0  0  0
 19 56  1  0  0  0  0
 19 57  1  0  0  0  0
 19 58  1  0  0  0  0
 20 59  1  0  0  0  0
 20 60  1  0  0  0  0
 20 61  1  0  0  0  0
 21 62  1  0  0  0  0
 25 63  1  0  0  0  0
 25 64  1  0  0  0  0
 26 65  1  0  0  0  0
 26 66  1  0  0  0  0
 31 67  1  0  0  0  0
 32 68  1  0  0  0  0
 36 69  1  0  0  0  0
 37 70  1  0  0  0  0
 37 71  1  0  0  0  0
 37 72  1  0  0  0  0
 38 73  1  0  0  0  0
 38 74  1  0  0  0  0
 38 75  1  0  0  0  0
 40 76  1  0  0  0  0
 40 77  1  0  0  0  0
 40 78  1  0  0  0  0
 41 79  1  0  0  0  0
 41 80  1  0  0  0  0
 41 81  1  0  0  0  0
M  CHG  2  27   1  29  -1
M  END
>  <energy>
96.540350796004788

$$$$
