C=C1OC2CCC3(C)OC4(COC(C)=O)CC5OC15C3OC24C
                    3D

 45 49  0  0  0  0  0  0  0  0999 V2000
    0.8779   -4.0523   -0.5609 C   0  0  0  0  0  0  0  0  0  0  0  0
    0.5877   -2.7431   -0.4686 C   0  0  0  0  0  0  0  0  0  0  0  0
    0.1653   -2.2575    0.8460 O   0  0  0  0  0  0  0  0  0  0  0  0
    1.0486   -1.2604    1.4431 C   0  0  0  0  0  0  0  0  0  0  0  0
    0.7050    0.2991    2.0276 C   0  0  0  0  0  0  0  0  0  0  0  0
    1.1548    1.6491    0.8915 C   0  0  0  0  0  0  0  0  0  0  0  0
    1.0616    1.3272   -0.8498 C   0  0  0  0  0  0  0  0  0  0  0  0
    1.5169    2.4930   -1.7066 C   0  0  0  0  0  0  0  0  0  0  0  0
   -0.3262    1.3694   -0.7026 O   0  0  0  0  0  0  0  0  0  0  0  0
   -0.3903    0.0085   -0.2854 C   0  0  0  0  0  0  0  0  0  0  0  0
   -1.6807   -0.2741    0.6778 C   0  0  0  0  0  0  0  0  0  0  0  0
   -2.3169    0.9180    1.2267 O   0  0  0  0  0  0  0  0  0  0  0  0
   -3.6413    1.1135    0.9631 C   0  0  0  0  0  0  0  0  0  0  0  0
   -4.2404    2.1865    1.8458 C   0  0  0  0  0  0  0  0  0  0  0  0
   -4.3054    0.4583    0.1621 O   0  0  0  0  0  0  0  0  0  0  0  0
   -1.1099   -0.3203   -1.7710 C   0  0  0  0  0  0  0  0  0  0  0  0
   -0.8273   -1.6727   -2.1827 C   0  0  0  0  0  0  0  0  0  0  0  0
    0.1959   -2.0477   -3.0892 O   0  0  0  0  0  0  0  0  0  0  0  0
    0.5771   -1.7624   -1.7407 C   0  0  0  0  0  0  0  0  0  0  0  0
    1.5097   -0.2998   -1.7114 C   0  0  0  0  0  0  0  0  0  0  0  0
    2.3080   -0.9291   -0.8100 O   0  0  0  0  0  0  0  0  0  0  0  0
    1.4658   -0.5598    0.2609 C   0  0  0  0  0  0  0  0  0  0  0  0
    2.9460   -0.0105    0.8794 C   0  0  0  0  0  0  0  0  0  0  0  0
    1.1781   -4.4776   -1.5112 H   0  0  0  0  0  0  0  0  0  0  0  0
    0.8349   -4.7088    0.2999 H   0  0  0  0  0  0  0  0  0  0  0  0
    1.8031   -1.7698    2.0536 H   0  0  0  0  0  0  0  0  0  0  0  0
    1.3152    0.4805    2.9272 H   0  0  0  0  0  0  0  0  0  0  0  0
   -0.3079    0.4534    2.3885 H   0  0  0  0  0  0  0  0  0  0  0  0
    0.4371    2.4490    1.1344 H   0  0  0  0  0  0  0  0  0  0  0  0
    2.1296    2.0837    1.1388 H   0  0  0  0  0  0  0  0  0  0  0  0
    2.6076    2.5456   -1.7546 H   0  0  0  0  0  0  0  0  0  0  0  0
    1.1321    3.4470   -1.3291 H   0  0  0  0  0  0  0  0  0  0  0  0
    1.1320    2.3829   -2.7293 H   0  0  0  0  0  0  0  0  0  0  0  0
   -2.4241   -0.8826    0.1494 H   0  0  0  0  0  0  0  0  0  0  0  0
   -1.4742   -0.9132    1.5371 H   0  0  0  0  0  0  0  0  0  0  0  0
   -5.2099    2.5052    1.4385 H   0  0  0  0  0  0  0  0  0  0  0  0
   -4.4222    1.7931    2.8529 H   0  0  0  0  0  0  0  0  0  0  0  0
   -3.5911    3.0676    1.8957 H   0  0  0  0  0  0  0  0  0  0  0  0
   -0.7738    0.3760   -2.5597 H   0  0  0  0  0  0  0  0  0  0  0  0
   -2.1910   -0.1265   -1.7328 H   0  0  0  0  0  0  0  0  0  0  0  0
   -1.5654   -2.4114   -1.9157 H   0  0  0  0  0  0  0  0  0  0  0  0
    2.0143   -0.1232   -2.6679 H   0  0  0  0  0  0  0  0  0  0  0  0
    3.0014    0.3488    1.9099 H   0  0  0  0  0  0  0  0  0  0  0  0
    3.6462   -0.8680    0.9067 H   0  0  0  0  0  0  0  0  0  0  0  0
    3.4459    0.7155    0.2225 H   0  0  0  0  0  0  0  0  0  0  0  0
  2  1  2  0  0  0  0
  3  2  1  0  0  0  0
  4  3  1  0  0  0  0
  5  4  1  0  0  0  0
  6  5  1  0  0  0  0
  7  6  1  0  0  0  0
  8  7  1  0  0  0  0
  9  7  1  0  0  0  0
 10  9  1  0  0  0  0
 11 10  1  0  0  0  0
 12 11  1  0  0  0  0
 13 12  1  0  0  0  0
 14 13  1  0  0  0  0
 15 13  2  0  0  0  0
 16 10  1  0  0  0  0
 17 16  1  0  0  0  0
 18 17  1  0  0  0  0
 19 18  1  0  0  0  0
 19  2  1  0  0  0  0
 19 17  1  0  0  0  0
 20 19  1  0  0  0  0
 20  7  1  0  0  0  0
 21 20  1  0  0  0  0
 22 21  1  0  0  0  0
 22  4  1  0  0  0  0
 22 10  1  0  0  0  0
 23 22  1  0  0  0  0
  1 24  1  0  0  0  0
  1 25  1  0  0  0  0
  4 26  1  0  0  0  0
  5 27  1  0  0  0  0
  5 28  1  0  0  0  0
  6 29  1  0  0  0  0
  6 30  1  0  0  0  0
  8 31  1  0  0  0  0
  8 32  1  0  0  0  0
  8 33  1  0  0  0  0
 11 34  1  0  0  0  0
 11 35  1  0  0  0  0
 14 36  1  0  0  0  0
 14 37  1  0  0  0  0
 14 38  1  0  0  0  0
 16 39  1  0  0  0  0
 16 40  1  0  0  0  0
 17 41  1  0  0  0  0
 20 42  1  0  0  0  0
 23 43  1  0  0  0  0
 23 44  1  0  0  0  0
 23 45  1  0  0  0  0
M  END
>  <energy>
606.33388594659914

$$$$
