CC1=CCCCC1N=C(C)C(O)C(C)C1=C2CC(O)CC1C(C)(O)C2
                    3D

 58 60  0  0  0  0  0  0  0  0999 V2000
   -3.2666   -0.5609    2.0574 C   0  0  0  0  0  0  0  0  0  0  0  0
   -3.4631    0.1230    0.7311 C   0  0  0  0  0  0  0  0  0  0  0  0
   -4.4154    1.0628    0.5730 C   0  0  0  0  0  0  0  0  0  0  0  0
   -4.6475    1.8083   -0.7080 C   0  0  0  0  0  0  0  0  0  0  0  0
   -3.5069    1.6489   -1.7110 C   0  0  0  0  0  0  0  0  0  0  0  0
   -3.0219    0.2058   -1.7754 C   0  0  0  0  0  0  0  0  0  0  0  0
   -2.5383   -0.2968   -0.4047 C   0  0  0  0  0  0  0  0  0  0  0  0
   -2.4995   -1.7563   -0.4276 N   0  0  0  0  0  0  0  0  0  0  0  0
   -1.4125   -2.4308   -0.5873 C   0  0  0  0  0  0  0  0  0  0  0  0
   -1.5402   -3.9380   -0.5268 C   0  0  0  0  0  0  0  0  0  0  0  0
    0.0023   -1.8822   -0.8532 C   0  0  0  0  0  0  0  0  0  0  0  0
   -0.0342   -0.9615   -1.9356 O   0  0  0  0  0  0  0  0  0  0  0  0
    0.6428   -1.2779    0.4346 C   0  0  0  0  0  0  0  0  0  0  0  0
    1.3915   -2.3758    1.2043 C   0  0  0  0  0  0  0  0  0  0  0  0
    1.4538   -0.0253    0.1570 C   0  0  0  0  0  0  0  0  0  0  0  0
    1.2263    1.2089    0.6492 C   0  0  0  0  0  0  0  0  0  0  0  0
    1.7447    1.3242    2.0799 C   0  0  0  0  0  0  0  0  0  0  0  0
    3.2753    1.0047    2.1047 C   0  0  0  0  0  0  0  0  0  0  0  0
    4.0289    2.2057    1.8724 O   0  0  0  0  0  0  0  0  0  0  0  0
    3.7312   -0.0410    1.0390 C   0  0  0  0  0  0  0  0  0  0  0  0
    2.8950    0.0086   -0.2800 C   0  0  0  0  0  0  0  0  0  0  0  0
    2.9722    1.3999   -0.9858 C   0  0  0  0  0  0  0  0  0  0  0  0
    2.7048    1.3059   -2.4860 C   0  0  0  0  0  0  0  0  0  0  0  0
    4.2576    2.0074   -0.8367 O   0  0  0  0  0  0  0  0  0  0  0  0
    1.8799    2.2351   -0.2787 C   0  0  0  0  0  0  0  0  0  0  0  0
   -3.8871   -0.1208    2.8445 H   0  0  0  0  0  0  0  0  0  0  0  0
   -2.2247   -0.4840    2.3833 H   0  0  0  0  0  0  0  0  0  0  0  0
   -3.5383   -1.6186    1.9869 H   0  0  0  0  0  0  0  0  0  0  0  0
   -5.0735    1.3179    1.4024 H   0  0  0  0  0  0  0  0  0  0  0  0
   -5.5855    1.4516   -1.1486 H   0  0  0  0  0  0  0  0  0  0  0  0
   -4.7889    2.8734   -0.4903 H   0  0  0  0  0  0  0  0  0  0  0  0
   -2.6741    2.2989   -1.4150 H   0  0  0  0  0  0  0  0  0  0  0  0
   -3.8348    1.9811   -2.7032 H   0  0  0  0  0  0  0  0  0  0  0  0
   -3.8288   -0.4352   -2.1535 H   0  0  0  0  0  0  0  0  0  0  0  0
   -2.2132    0.1399   -2.5087 H   0  0  0  0  0  0  0  0  0  0  0  0
   -1.5671    0.1558   -0.1893 H   0  0  0  0  0  0  0  0  0  0  0  0
   -2.5666   -4.2408   -0.3003 H   0  0  0  0  0  0  0  0  0  0  0  0
   -0.8846   -4.3342    0.2511 H   0  0  0  0  0  0  0  0  0  0  0  0
   -1.2501   -4.3620   -1.4911 H   0  0  0  0  0  0  0  0  0  0  0  0
    0.6160   -2.7208   -1.2026 H   0  0  0  0  0  0  0  0  0  0  0  0
   -0.5410   -1.3735   -2.6564 H   0  0  0  0  0  0  0  0  0  0  0  0
   -0.1699   -0.9825    1.1113 H   0  0  0  0  0  0  0  0  0  0  0  0
    1.7667   -2.0026    2.1617 H   0  0  0  0  0  0  0  0  0  0  0  0
    0.7280   -3.2128    1.4361 H   0  0  0  0  0  0  0  0  0  0  0  0
    2.2339   -2.7723    0.6273 H   0  0  0  0  0  0  0  0  0  0  0  0
    1.2047    0.6035    2.7076 H   0  0  0  0  0  0  0  0  0  0  0  0
    1.5293    2.3242    2.4715 H   0  0  0  0  0  0  0  0  0  0  0  0
    3.5601    0.6548    3.1029 H   0  0  0  0  0  0  0  0  0  0  0  0
    3.7963    2.8334    2.5797 H   0  0  0  0  0  0  0  0  0  0  0  0
    4.7953    0.0855    0.8022 H   0  0  0  0  0  0  0  0  0  0  0  0
    3.6409   -1.0373    1.4821 H   0  0  0  0  0  0  0  0  0  0  0  0
    3.1650   -0.8125   -0.9530 H   0  0  0  0  0  0  0  0  0  0  0  0
    3.4575    0.6756   -2.9771 H   0  0  0  0  0  0  0  0  0  0  0  0
    1.7133    0.9016   -2.7090 H   0  0  0  0  0  0  0  0  0  0  0  0
    2.7846    2.2972   -2.9488 H   0  0  0  0  0  0  0  0  0  0  0  0
    4.3762    2.2058    0.1167 H   0  0  0  0  0  0  0  0  0  0  0  0
    2.2772    3.1027    0.2561 H   0  0  0  0  0  0  0  0  0  0  0  0
    1.1229    2.6044   -0.9820 H   0  0  0  0  0  0  0  0  0  0  0  0
  2  1  1  0  0  0  0
  3  2  2  0  0  0  0
  4  3  1  0  0  0  0
  5  4  1  0  0  0  0
  6  5  1  0  0  0  0
  7  6  1  0  0  0  0
  7  2  1  0  0  0  0
  8  7  1  0  0  0  0
  9  8  2  0  0  0  0
 10  9  1  0  0  0  0
 11  9  1  0  0  0  0
 12 11  1  0  0  0  0
 13 11  1  0  0  0  0
 14 13  1  0  0  0  0
 15 13  1  0  0  0  0
 16 15  2  0  0  0  0
 17 16  1  0  0  0  0
 18 17  1  0  0  0  0
 19 18  1  0  0  0  0
 20 18  1  0  0  0  0
 21 20  1  0  0  0  0
 21 15  1  0  0  0  0
 22 21  1  0  0  0  0
 23 22  1  0  0  0  0
 24 22  1  0  0  0  0
 25 22  1  0  0  0  0
 25 16  1  0  0  0  0
  1 26  1  0  0  0  0
  1 27  1  0  0  0  0
  1 28  1  0  0  0  0
  3 29  1  0  0  0  0
  4 30  1  0  0  0  0
  4 31  1  0  0  0  0
  5 32  1  0  0  0  0
  5 33  1  0  0  0  0
  6 34  1  0  0  0  0
  6 35  1  0  0  0  0
  7 36  1  0  0  0  0
 10 37  1  0  0  0  0
 10 38  1  0  0  0  0
 10 39  1  0  0  0  0
 11 40  1  0  0  0  0
 12 41  1  0  0  0  0
 13 42  1  0  0  0  0
 14 43  1  0  0  0  0
 14 44  1  0  0  0  0
 14 45  1  0  0  0  0
 17 46  1  0  0  0  0
 17 47  1  0  0  0  0
 18 48  1  0  0  0  0
 19 49  1  0  0  0  0
 20 50  1  0  0  0  0
 20 51  1  0  0  0  0
 21 52  1  0  0  0  0
 23 53  1  0  0  0  0
 23 54  1  0  0  0  0
 23 55  1  0  0  0  0
 24 56  1  0  0  0  0
 25 57  1  0  0  0  0
 25 58  1  0  0  0  0
M  END
>  <energy>
162.39910652462416

$$$$
