CC(=O)NCC(O)C1C2C34C=CC(C#N)(C(C3)C4CCN1CC1CC1)C2(C)C
                    3D

 61 65  0  0  0  0  0  0  0  0999 V2000
    4.4658   -3.6235   -1.1264 C   0  0  0  0  0  0  0  0  0  0  0  0
    3.1687   -2.8787   -1.3225 C   0  0  0  0  0  0  0  0  0  0  0  0
    2.8410   -2.4271   -2.4188 O   0  0  0  0  0  0  0  0  0  0  0  0
    2.3932   -2.7499   -0.1897 N   0  0  0  0  0  0  0  0  0  0  0  0
    1.0607   -2.1497   -0.2810 C   0  0  0  0  0  0  0  0  0  0  0  0
    0.5915   -1.5897    1.0696 C   0  0  0  0  0  0  0  0  0  0  0  0
    1.6878   -1.1406    1.8837 O   0  0  0  0  0  0  0  0  0  0  0  0
   -0.4778   -0.4638    0.9899 C   0  0  0  0  0  0  0  0  0  0  0  0
    0.0795    0.9434    0.6177 C   0  0  0  0  0  0  0  0  0  0  0  0
   -0.3753    1.9949    1.8458 C   0  0  0  0  0  0  0  0  0  0  0  0
    1.0330    2.1810    2.4271 C   0  0  0  0  0  0  0  0  0  0  0  0
    1.8527    2.8353    1.5845 C   0  0  0  0  0  0  0  0  0  0  0  0
    1.2146    3.0734    0.2093 C   0  0  0  0  0  0  0  0  0  0  0  0
    1.9939    4.0216   -0.6005 C   0  0  0  0  0  0  0  0  0  0  0  0
    2.6080    4.7655   -1.2479 N   0  0  0  0  0  0  0  0  0  0  0  0
   -0.2998    3.6315    0.4635 C   0  0  0  0  0  0  0  0  0  0  0  0
   -0.4456    3.8546    1.9912 C   0  0  0  0  0  0  0  0  0  0  0  0
   -1.4979    2.5993    0.8754 C   0  0  0  0  0  0  0  0  0  0  0  0
   -2.4564    1.8391   -0.0938 C   0  0  0  0  0  0  0  0  0  0  0  0
   -2.7668    0.3906    0.3974 C   0  0  0  0  0  0  0  0  0  0  0  0
   -1.7246   -0.6735    0.1577 N   0  0  0  0  0  0  0  0  0  0  0  0
   -2.3425   -1.9964    0.2902 C   0  0  0  0  0  0  0  0  0  0  0  0
   -2.8965   -2.3878   -1.0529 C   0  0  0  0  0  0  0  0  0  0  0  0
   -4.3417   -2.1731   -1.4419 C   0  0  0  0  0  0  0  0  0  0  0  0
   -3.8405   -3.5602   -1.1553 C   0  0  0  0  0  0  0  0  0  0  0  0
    1.1788    1.5944   -0.3372 C   0  0  0  0  0  0  0  0  0  0  0  0
    0.7503    1.5988   -1.8481 C   0  0  0  0  0  0  0  0  0  0  0  0
    2.5634    0.9146   -0.3057 C   0  0  0  0  0  0  0  0  0  0  0  0
    4.7264   -3.7200   -0.0701 H   0  0  0  0  0  0  0  0  0  0  0  0
    5.2665   -3.0695   -1.6236 H   0  0  0  0  0  0  0  0  0  0  0  0
    4.3841   -4.6198   -1.5673 H   0  0  0  0  0  0  0  0  0  0  0  0
    2.5386   -3.4475    0.5317 H   0  0  0  0  0  0  0  0  0  0  0  0
    0.3740   -2.9350   -0.6206 H   0  0  0  0  0  0  0  0  0  0  0  0
    1.0474   -1.3884   -1.0637 H   0  0  0  0  0  0  0  0  0  0  0  0
    0.1785   -2.4315    1.6391 H   0  0  0  0  0  0  0  0  0  0  0  0
    2.5036   -1.4691    1.4645 H   0  0  0  0  0  0  0  0  0  0  0  0
   -0.8410   -0.3993    2.0292 H   0  0  0  0  0  0  0  0  0  0  0  0
   -0.5816    1.0498   -0.2134 H   0  0  0  0  0  0  0  0  0  0  0  0
    1.2998    1.8747    3.4316 H   0  0  0  0  0  0  0  0  0  0  0  0
    2.8797    3.0845    1.8201 H   0  0  0  0  0  0  0  0  0  0  0  0
   -0.6152    4.4556   -0.1840 H   0  0  0  0  0  0  0  0  0  0  0  0
   -1.3631    4.3108    2.3930 H   0  0  0  0  0  0  0  0  0  0  0  0
    0.3529    4.4440    2.4686 H   0  0  0  0  0  0  0  0  0  0  0  0
   -2.3345    3.0235    1.4719 H   0  0  0  0  0  0  0  0  0  0  0  0
   -3.4073    2.3911   -0.1401 H   0  0  0  0  0  0  0  0  0  0  0  0
   -2.1023    1.8544   -1.1325 H   0  0  0  0  0  0  0  0  0  0  0  0
   -3.6712    0.1158   -0.1583 H   0  0  0  0  0  0  0  0  0  0  0  0
   -3.0492    0.4148    1.4604 H   0  0  0  0  0  0  0  0  0  0  0  0
   -1.6162   -2.7723    0.5411 H   0  0  0  0  0  0  0  0  0  0  0  0
   -3.1029   -2.0210    1.0779 H   0  0  0  0  0  0  0  0  0  0  0  0
   -2.1526   -2.2904   -1.8422 H   0  0  0  0  0  0  0  0  0  0  0  0
   -4.5449   -1.9077   -2.4755 H   0  0  0  0  0  0  0  0  0  0  0  0
   -5.0219   -1.7249   -0.7291 H   0  0  0  0  0  0  0  0  0  0  0  0
   -4.1905   -4.0364   -0.2452 H   0  0  0  0  0  0  0  0  0  0  0  0
   -3.7115   -4.2410   -1.9871 H   0  0  0  0  0  0  0  0  0  0  0  0
   -0.1045    2.2590   -2.0394 H   0  0  0  0  0  0  0  0  0  0  0  0
    1.5623    1.9480   -2.4982 H   0  0  0  0  0  0  0  0  0  0  0  0
    0.4748    0.5928   -2.1848 H   0  0  0  0  0  0  0  0  0  0  0  0
    2.5948    0.0277   -0.9356 H   0  0  0  0  0  0  0  0  0  0  0  0
    3.3410    1.5789   -0.6950 H   0  0  0  0  0  0  0  0  0  0  0  0
    2.8685    0.6247    0.6955 H   0  0  0  0  0  0  0  0  0  0  0  0
  2  1  1  0  0  0  0
  3  2  2  0  0  0  0
  4  2  1  0  0  0  0
  5  4  1  0  0  0  0
  6  5  1  0  0  0  0
  7  6  1  0  0  0  0
  8  6  1  0  0  0  0
  9  8  1  0  0  0  0
 10  9  1  0  0  0  0
 11 10  1  0  0  0  0
 12 11  2  0  0  0  0
 13 12  1  0  0  0  0
 14 13  1  0  0  0  0
 15 14  3  0  0  0  0
 16 13  1  0  0  0  0
 17 16  1  0  0  0  0
 17 10  1  0  0  0  0
 18 16  1  0  0  0  0
 18 10  1  0  0  0  0
 19 18  1  0  0  0  0
 20 19  1  0  0  0  0
 21 20  1  0  0  0  0
 21  8  1  0  0  0  0
 22 21  1  0  0  0  0
 23 22  1  0  0  0  0
 24 23  1  0  0  0  0
 25 24  1  0  0  0  0
 25 23  1  0  0  0  0
 26 13  1  0  0  0  0
 26  9  1  0  0  0  0
 27 26  1  0  0  0  0
 28 26  1  0  0  0  0
  1 29  1  0  0  0  0
  1 30  1  0  0  0  0
  1 31  1  0  0  0  0
  4 32  1  0  0  0  0
  5 33  1  0  0  0  0
  5 34  1  0  0  0  0
  6 35  1  0  0  0  0
  7 36  1  0  0  0  0
  8 37  1  0  0  0  0
  9 38  1  0  0  0  0
 11 39  1  0  0  0  0
 12 40  1  0  0  0  0
 16 41  1  0  0  0  0
 17 42  1  0  0  0  0
 17 43  1  0  0  0  0
 18 44  1  0  0  0  0
 19 45  1  0  0  0  0
 19 46  1  0  0  0  0
 20 47  1  0  0  0  0
 20 48  1  0  0  0  0
 22 49  1  0  0  0  0
 22 50  1  0  0  0  0
 23 51  1  0  0  0  0
 24 52  1  0  0  0  0
 24 53  1  0  0  0  0
 25 54  1  0  0  0  0
 25 55  1  0  0  0  0
 27 56  1  0  0  0  0
 27 57  1  0  0  0  0
 27 58  1  0  0  0  0
 28 59  1  0  0  0  0
 28 60  1  0  0  0  0
 28 61  1  0  0  0  0
M  END
>  <energy>
313.16976538335069

$$$$
