CCC(O)C1C2C3=C(CO)C(NC)C4(O)CC(O)CC2(O)N(CC)CC4C31O
                    3D

 62 65  0  0  0  0  0  0  0  0999 V2000
   -4.0985   -1.0290    1.5622 C   0  0  0  0  0  0  0  0  0  0  0  0
   -3.9465    0.0786    0.5307 C   0  0  0  0  0  0  0  0  0  0  0  0
   -3.1687    1.3099    0.9729 C   0  0  0  0  0  0  0  0  0  0  0  0
   -3.3218    1.5573    2.3729 O   0  0  0  0  0  0  0  0  0  0  0  0
   -1.6801    1.4352    0.6327 C   0  0  0  0  0  0  0  0  0  0  0  0
   -0.4213    0.8348    1.3471 C   0  0  0  0  0  0  0  0  0  0  0  0
    0.2808    1.5030    0.1664 C   0  0  0  0  0  0  0  0  0  0  0  0
    1.5434    1.8103   -0.1822 C   0  0  0  0  0  0  0  0  0  0  0  0
    2.6180    2.2457    0.7616 C   0  0  0  0  0  0  0  0  0  0  0  0
    2.7726    3.6562    0.6407 O   0  0  0  0  0  0  0  0  0  0  0  0
    1.8228    1.3932   -1.6197 C   0  0  0  0  0  0  0  0  0  0  0  0
    3.2191    1.2422   -2.0552 N   0  0  0  0  0  0  0  0  0  0  0  0
    3.8143    2.5017   -2.4742 C   0  0  0  0  0  0  0  0  0  0  0  0
    1.0843   -0.0333   -1.8454 C   0  0  0  0  0  0  0  0  0  0  0  0
    1.1962   -0.2938   -3.2800 O   0  0  0  0  0  0  0  0  0  0  0  0
    1.8363   -1.2409   -1.2056 C   0  0  0  0  0  0  0  0  0  0  0  0
    2.2146   -1.3434    0.2770 C   0  0  0  0  0  0  0  0  0  0  0  0
    3.4778   -0.6777    0.4723 O   0  0  0  0  0  0  0  0  0  0  0  0
    1.3311   -1.0221    1.4995 C   0  0  0  0  0  0  0  0  0  0  0  0
   -0.1871   -0.7190    1.4329 C   0  0  0  0  0  0  0  0  0  0  0  0
   -0.6836   -1.0438    2.7480 O   0  0  0  0  0  0  0  0  0  0  0  0
   -0.9403   -1.5648    0.5017 N   0  0  0  0  0  0  0  0  0  0  0  0
   -0.8696   -3.0092    0.8108 C   0  0  0  0  0  0  0  0  0  0  0  0
   -1.9824   -3.8570    0.1893 C   0  0  0  0  0  0  0  0  0  0  0  0
   -1.0304   -1.3037   -0.9308 C   0  0  0  0  0  0  0  0  0  0  0  0
   -0.4874   -0.0226   -1.5545 C   0  0  0  0  0  0  0  0  0  0  0  0
   -0.9065    1.2175   -0.7648 C   0  0  0  0  0  0  0  0  0  0  0  0
   -1.1643    2.2892   -1.7015 O   0  0  0  0  0  0  0  0  0  0  0  0
   -4.7018   -0.6955    2.4139 H   0  0  0  0  0  0  0  0  0  0  0  0
   -3.1415   -1.3765    1.9479 H   0  0  0  0  0  0  0  0  0  0  0  0
   -4.6222   -1.8815    1.1148 H   0  0  0  0  0  0  0  0  0  0  0  0
   -4.9745    0.4088    0.3177 H   0  0  0  0  0  0  0  0  0  0  0  0
   -3.5833   -0.2982   -0.4231 H   0  0  0  0  0  0  0  0  0  0  0  0
   -3.6643    2.1541    0.4718 H   0  0  0  0  0  0  0  0  0  0  0  0
   -4.2738    1.5245    2.5749 H   0  0  0  0  0  0  0  0  0  0  0  0
   -1.6377    2.5335    0.8461 H   0  0  0  0  0  0  0  0  0  0  0  0
   -0.2263    1.3202    2.3130 H   0  0  0  0  0  0  0  0  0  0  0  0
    2.3532    2.0400    1.8025 H   0  0  0  0  0  0  0  0  0  0  0  0
    3.5886    1.7874    0.5735 H   0  0  0  0  0  0  0  0  0  0  0  0
    1.8894    4.0464    0.7611 H   0  0  0  0  0  0  0  0  0  0  0  0
    1.3456    2.1126   -2.2994 H   0  0  0  0  0  0  0  0  0  0  0  0
    3.7632    0.8336   -1.2923 H   0  0  0  0  0  0  0  0  0  0  0  0
    3.7949    3.2631   -1.6921 H   0  0  0  0  0  0  0  0  0  0  0  0
    3.3059    2.8915   -3.3610 H   0  0  0  0  0  0  0  0  0  0  0  0
    4.8590    2.3322   -2.7505 H   0  0  0  0  0  0  0  0  0  0  0  0
    2.0767    0.0643   -3.5210 H   0  0  0  0  0  0  0  0  0  0  0  0
    1.3276   -2.1691   -1.4862 H   0  0  0  0  0  0  0  0  0  0  0  0
    2.7770   -1.3494   -1.7680 H   0  0  0  0  0  0  0  0  0  0  0  0
    2.4687   -2.4066    0.4071 H   0  0  0  0  0  0  0  0  0  0  0  0
    4.1602   -1.2398    0.0588 H   0  0  0  0  0  0  0  0  0  0  0  0
    1.8099   -0.2248    2.0856 H   0  0  0  0  0  0  0  0  0  0  0  0
    1.4555   -1.8855    2.1751 H   0  0  0  0  0  0  0  0  0  0  0  0
   -0.2217   -0.4932    3.4006 H   0  0  0  0  0  0  0  0  0  0  0  0
   -0.9347   -3.1785    1.8915 H   0  0  0  0  0  0  0  0  0  0  0  0
    0.0964   -3.4130    0.4862 H   0  0  0  0  0  0  0  0  0  0  0  0
   -1.8941   -3.9244   -0.8999 H   0  0  0  0  0  0  0  0  0  0  0  0
   -2.9723   -3.4628    0.4351 H   0  0  0  0  0  0  0  0  0  0  0  0
   -1.9250   -4.8787    0.5825 H   0  0  0  0  0  0  0  0  0  0  0  0
   -2.0929   -1.3522   -1.1841 H   0  0  0  0  0  0  0  0  0  0  0  0
   -0.6330   -2.1446   -1.5081 H   0  0  0  0  0  0  0  0  0  0  0  0
   -0.9852    0.0389   -2.5351 H   0  0  0  0  0  0  0  0  0  0  0  0
   -0.9103    3.1089   -1.2439 H   0  0  0  0  0  0  0  0  0  0  0  0
  2  1  1  0  0  0  0
  3  2  1  0  0  0  0
  4  3  1  0  0  0  0
  5  3  1  0  0  0  0
  6  5  1  0  0  0  0
  7  6  1  0  0  0  0
  8  7  2  0  0  0  0
  9  8  1  0  0  0  0
 10  9  1  0  0  0  0
 11  8  1  0  0  0  0
 12 11  1  0  0  0  0
 13 12  1  0  0  0  0
 14 11  1  0  0  0  0
 15 14  1  0  0  0  0
 16 14  1  0  0  0  0
 17 16  1  0  0  0  0
 18 17  1  0  0  0  0
 19 17  1  0  0  0  0
 20 19  1  0  0  0  0
 20  6  1  0  0  0  0
 21 20  1  0  0  0  0
 22 20  1  0  0  0  0
 23 22  1  0  0  0  0
 24 23  1  0  0  0  0
 25 22  1  0  0  0  0
 26 25  1  0  0  0  0
 26 14  1  0  0  0  0
 27 26  1  0  0  0  0
 27  7  1  0  0  0  0
 27  5  1  0  0  0  0
 28 27  1  0  0  0  0
  1 29  1  0  0  0  0
  1 30  1  0  0  0  0
  1 31  1  0  0  0  0
  2 32  1  0  0  0  0
  2 33  1  0  0  0  0
  3 34  1  0  0  0  0
  4 35  1  0  0  0  0
  5 36  1  0  0  0  0
  6 37  1  0  0  0  0
  9 38  1  0  0  0  0
  9 39  1  0  0  0  0
 10 40  1  0  0  0  0
 11 41  1  0  0  0  0
 12 42  1  0  0  0  0
 13 43  1  0  0  0  0
 13 44  1  0  0  0  0
 13 45  1  0  0  0  0
 15 46  1  0  0  0  0
 16 47  1  0  0  0  0
 16 48  1  0  0  0  0
 17 49  1  0  0  0  0
 18 50  1  0  0  0  0
 19 51  1  0  0  0  0
 19 52  1  0  0  0  0
 21 53  1  0  0  0  0
 23 54  1  0  0  0  0
 23 55  1  0  0  0  0
 24 56  1  0  0  0  0
 24 57  1  0  0  0  0
 24 58  1  0  0  0  0
 25 59  1  0  0  0  0
 25 60  1  0  0  0  0
 26 61  1  0  0  0  0
 28 62  1  0  0  0  0
M  END
>  <energy>
119.52741434025161

$$$$
