CCCC(NC(=O)C1C2C(CC)C(C)(C)C2C12CC1CC2C1)C(=O)C(=O)NC1CC1OCC1CCC(=O)NC1C=CCC(=O)
                    3D

104110  0  0  0  0  0  0  0  0999 V2000
    0.9756    4.0976   -0.8617 C   0  0  0  0  0  0  0  0  0  0  0  0
   -0.2949    4.6414   -0.2323 C   0  0  0  0  0  0  0  0  0  0  0  0
   -0.4986    4.1566    1.2076 C   0  0  0  0  0  0  0  0  0  0  0  0
   -1.0874    2.7362    1.3064 C   0  0  0  0  0  0  0  0  0  0  0  0
   -2.4191    2.8114    1.9203 N   0  0  0  0  0  0  0  0  0  0  0  0
   -3.4731    1.9334    1.8768 C   0  0  0  0  0  0  0  0  0  0  0  0
   -4.3990    2.1933    2.6593 O   0  0  0  0  0  0  0  0  0  0  0  0
   -3.4666    0.6772    0.9194 C   0  0  0  0  0  0  0  0  0  0  0  0
   -4.1638   -0.5323    1.5715 C   0  0  0  0  0  0  0  0  0  0  0  0
   -4.0213   -1.9783    1.0371 C   0  0  0  0  0  0  0  0  0  0  0  0
   -2.7913   -2.6529    0.4294 C   0  0  0  0  0  0  0  0  0  0  0  0
   -2.5303   -2.4485   -1.0410 C   0  0  0  0  0  0  0  0  0  0  0  0
   -5.4911   -1.8581    0.4677 C   0  0  0  0  0  0  0  0  0  0  0  0
   -6.4880   -2.4412    1.5152 C   0  0  0  0  0  0  0  0  0  0  0  0
   -5.9177   -2.4075   -0.8838 C   0  0  0  0  0  0  0  0  0  0  0  0
   -5.4028   -0.3230    0.6714 C   0  0  0  0  0  0  0  0  0  0  0  0
   -4.5375    0.6172   -0.2275 C   0  0  0  0  0  0  0  0  0  0  0  0
   -4.0264    0.4412   -1.6590 C   0  0  0  0  0  0  0  0  0  0  0  0
   -4.7144    1.6574   -2.2734 C   0  0  0  0  0  0  0  0  0  0  0  0
   -6.1466    1.7217   -1.6875 C   0  0  0  0  0  0  0  0  0  0  0  0
   -5.3149    1.9655   -0.3904 C   0  0  0  0  0  0  0  0  0  0  0  0
   -4.4067    2.8351   -1.3149 C   0  0  0  0  0  0  0  0  0  0  0  0
   -0.2090    1.8463    2.1905 C   0  0  0  0  0  0  0  0  0  0  0  0
   -0.4077    1.5715    3.3682 O   0  0  0  0  0  0  0  0  0  0  0  0
    0.9740    1.2123    1.4840 C   0  0  0  0  0  0  0  0  0  0  0  0
    1.9000    1.9095    1.0918 O   0  0  0  0  0  0  0  0  0  0  0  0
    0.8533   -0.1543    1.3165 N   0  0  0  0  0  0  0  0  0  0  0  0
    1.7916   -0.9070    0.5391 C   0  0  0  0  0  0  0  0  0  0  0  0
    1.3062   -1.7631   -0.5943 C   0  0  0  0  0  0  0  0  0  0  0  0
    1.9040   -2.4055    0.6264 C   0  0  0  0  0  0  0  0  0  0  0  0
    3.2293   -2.9426    0.4328 O   0  0  0  0  0  0  0  0  0  0  0  0
    3.9049   -3.2542    1.6508 C   0  0  0  0  0  0  0  0  0  0  0  0
    5.4096   -2.9749    1.4933 C   0  0  0  0  0  0  0  0  0  0  0  0
    6.1868   -3.5635    2.6861 C   0  0  0  0  0  0  0  0  0  0  0  0
    6.2219   -2.6152    3.8782 C   0  0  0  0  0  0  0  0  0  0  0  0
    6.8370   -1.2946    3.4930 C   0  0  0  0  0  0  0  0  0  0  0  0
    7.3861   -0.5467    4.2945 O   0  0  0  0  0  0  0  0  0  0  0  0
    6.7225   -0.9477    2.1790 N   0  0  0  0  0  0  0  0  0  0  0  0
    5.6526   -1.4493    1.3432 C   0  0  0  0  0  0  0  0  0  0  0  0
    6.0235   -1.0206   -0.0483 C   0  0  0  0  0  0  0  0  0  0  0  0
    5.4498    0.0222   -0.6735 C   0  0  0  0  0  0  0  0  0  0  0  0
    5.8445    0.5412   -2.0173 C   0  0  0  0  0  0  0  0  0  0  0  0
    4.7942    0.1394   -3.0363 C   0  0  0  0  0  0  0  0  0  0  0  0
    4.9740   -0.7842   -3.8251 O   0  0  0  0  0  0  0  0  0  0  0  0
    3.6306    0.8856   -2.9721 N   0  0  0  0  0  0  0  0  0  0  0  0
    2.5724    0.7003   -3.9101 C   0  0  0  0  0  0  0  0  0  0  0  0
    2.3210    1.7413   -4.9579 C   0  0  0  0  0  0  0  0  0  0  0  0
    1.3227    1.5291   -3.8592 C   0  0  0  0  0  0  0  0  0  0  0  0
    0.9483    3.0082   -0.9132 H   0  0  0  0  0  0  0  0  0  0  0  0
    1.8569    4.3996   -0.2854 H   0  0  0  0  0  0  0  0  0  0  0  0
    1.1018    4.4809   -1.8779 H   0  0  0  0  0  0  0  0  0  0  0  0
   -1.1619    4.3882   -0.8525 H   0  0  0  0  0  0  0  0  0  0  0  0
   -0.2180    5.7351   -0.2234 H   0  0  0  0  0  0  0  0  0  0  0  0
    0.4563    4.2179    1.7413 H   0  0  0  0  0  0  0  0  0  0  0  0
   -1.1710    4.8752    1.6981 H   0  0  0  0  0  0  0  0  0  0  0  0
   -1.1921    2.2599    0.3236 H   0  0  0  0  0  0  0  0  0  0  0  0
   -2.5141    3.4246    2.7238 H   0  0  0  0  0  0  0  0  0  0  0  0
   -2.4538    0.4142    0.5907 H   0  0  0  0  0  0  0  0  0  0  0  0
   -4.3433   -0.4724    2.6503 H   0  0  0  0  0  0  0  0  0  0  0  0
   -4.0689   -2.6070    1.9525 H   0  0  0  0  0  0  0  0  0  0  0  0
   -2.8913   -3.7343    0.5801 H   0  0  0  0  0  0  0  0  0  0  0  0
   -1.9001   -2.3521    0.9941 H   0  0  0  0  0  0  0  0  0  0  0  0
   -2.2610   -1.4168   -1.2617 H   0  0  0  0  0  0  0  0  0  0  0  0
   -1.6826   -3.0704   -1.3595 H   0  0  0  0  0  0  0  0  0  0  0  0
   -3.3730   -2.7492   -1.6623 H   0  0  0  0  0  0  0  0  0  0  0  0
   -6.4427   -3.5340    1.5258 H   0  0  0  0  0  0  0  0  0  0  0  0
   -6.2720   -2.0916    2.5308 H   0  0  0  0  0  0  0  0  0  0  0  0
   -7.5156   -2.1444    1.2794 H   0  0  0  0  0  0  0  0  0  0  0  0
   -6.9586   -2.1358   -1.1057 H   0  0  0  0  0  0  0  0  0  0  0  0
   -5.3300   -2.0550   -1.7245 H   0  0  0  0  0  0  0  0  0  0  0  0
   -5.8614   -3.5024   -0.8961 H   0  0  0  0  0  0  0  0  0  0  0  0
   -6.2568    0.1517    1.1719 H   0  0  0  0  0  0  0  0  0  0  0  0
   -2.9394    0.5499   -1.7424 H   0  0  0  0  0  0  0  0  0  0  0  0
   -4.3438   -0.4672   -2.1609 H   0  0  0  0  0  0  0  0  0  0  0  0
   -4.5826    1.8206   -3.3426 H   0  0  0  0  0  0  0  0  0  0  0  0
   -6.7694    2.5577   -2.0222 H   0  0  0  0  0  0  0  0  0  0  0  0
   -6.7365    0.8024   -1.7314 H   0  0  0  0  0  0  0  0  0  0  0  0
   -5.8170    2.4401    0.4508 H   0  0  0  0  0  0  0  0  0  0  0  0
   -3.3621    2.9621   -1.0175 H   0  0  0  0  0  0  0  0  0  0  0  0
   -4.8080    3.8103   -1.6070 H   0  0  0  0  0  0  0  0  0  0  0  0
    0.0995   -0.6374    1.7933 H   0  0  0  0  0  0  0  0  0  0  0  0
    2.7214   -0.3757    0.3574 H   0  0  0  0  0  0  0  0  0  0  0  0
    1.8800   -1.7597   -1.5136 H   0  0  0  0  0  0  0  0  0  0  0  0
    0.2415   -1.8645   -0.7445 H   0  0  0  0  0  0  0  0  0  0  0  0
    1.2145   -2.9511    1.2652 H   0  0  0  0  0  0  0  0  0  0  0  0
    3.4906   -2.6674    2.4780 H   0  0  0  0  0  0  0  0  0  0  0  0
    3.7291   -4.3125    1.8652 H   0  0  0  0  0  0  0  0  0  0  0  0
    5.7480   -3.4916    0.5823 H   0  0  0  0  0  0  0  0  0  0  0  0
    5.7675   -4.5322    2.9859 H   0  0  0  0  0  0  0  0  0  0  0  0
    7.2214   -3.7584    2.3693 H   0  0  0  0  0  0  0  0  0  0  0  0
    5.2197   -2.4370    4.2782 H   0  0  0  0  0  0  0  0  0  0  0  0
    6.8375   -3.0560    4.6710 H   0  0  0  0  0  0  0  0  0  0  0  0
    7.0570   -0.0112    1.9914 H   0  0  0  0  0  0  0  0  0  0  0  0
    4.7602   -0.8993    1.6740 H   0  0  0  0  0  0  0  0  0  0  0  0
    6.8360   -1.5645   -0.5293 H   0  0  0  0  0  0  0  0  0  0  0  0
    4.6519    0.5651   -0.1756 H   0  0  0  0  0  0  0  0  0  0  0  0
    6.8166    0.1533   -2.3436 H   0  0  0  0  0  0  0  0  0  0  0  0
    5.9349    1.6347   -1.9883 H   0  0  0  0  0  0  0  0  0  0  0  0
    3.5774    1.6688   -2.3296 H   0  0  0  0  0  0  0  0  0  0  0  0
    2.4377   -0.3394   -4.2090 H   0  0  0  0  0  0  0  0  0  0  0  0
    2.9301    2.6366   -4.9372 H   0  0  0  0  0  0  0  0  0  0  0  0
    2.0869    1.3944   -5.9593 H   0  0  0  0  0  0  0  0  0  0  0  0
    0.3865    1.0286   -4.0956 H   0  0  0  0  0  0  0  0  0  0  0  0
    1.2377    2.2917   -3.0969 H   0  0  0  0  0  0  0  0  0  0  0  0
  2  1  1  0  0  0  0
  3  2  1  0  0  0  0
  4  3  1  0  0  0  0
  5  4  1  0  0  0  0
  6  5  1  0  0  0  0
  7  6  2  0  0  0  0
  8  6  1  0  0  0  0
  9  8  1  0  0  0  0
 10  9  1  0  0  0  0
 11 10  1  0  0  0  0
 12 11  1  0  0  0  0
 13 10  1  0  0  0  0
 14 13  1  0  0  0  0
 15 13  1  0  0  0  0
 16 13  1  0  0  0  0
 16  9  1  0  0  0  0
 17 16  1  0  0  0  0
 17  8  1  0  0  0  0
 18 17  1  0  0  0  0
 19 18  1  0  0  0  0
 20 19  1  0  0  0  0
 21 20  1  0  0  0  0
 21 17  1  0  0  0  0
 22 21  1  0  0  0  0
 22 19  1  0  0  0  0
 23  4  1  0  0  0  0
 24 23  2  0  0  0  0
 25 23  1  0  0  0  0
 26 25  2  0  0  0  0
 27 25  1  0  0  0  0
 28 27  1  0  0  0  0
 29 28  1  0  0  0  0
 30 29  1  0  0  0  0
 30 28  1  0  0  0  0
 31 30  1  0  0  0  0
 32 31  1  0  0  0  0
 33 32  1  0  0  0  0
 34 33  1  0  0  0  0
 35 34  1  0  0  0  0
 36 35  1  0  0  0  0
 37 36  2  0  0  0  0
 38 36  1  0  0  0  0
 39 38  1  0  0  0  0
 39 33  1  0  0  0  0
 40 39  1  0  0  0  0
 41 40  2  0  0  0  0
 42 41  1  0  0  0  0
 43 42  1  0  0  0  0
 44 43  2  0  0  0  0
 45 43  1  0  0  0  0
 46 45  1  0  0  0  0
 47 46  1  0  0  0  0
 48 47  1  0  0  0  0
 48 46  1  0  0  0  0
  1 49  1  0  0  0  0
  1 50  1  0  0  0  0
  1 51  1  0  0  0  0
  2 52  1  0  0  0  0
  2 53  1  0  0  0  0
  3 54  1  0  0  0  0
  3 55  1  0  0  0  0
  4 56  1  0  0  0  0
  5 57  1  0  0  0  0
  8 58  1  0  0  0  0
  9 59  1  0  0  0  0
 10 60  1  0  0  0  0
 11 61  1  0  0  0  0
 11 62  1  0  0  0  0
 12 63  1  0  0  0  0
 12 64  1  0  0  0  0
 12 65  1  0  0  0  0
 14 66  1  0  0  0  0
 14 67  1  0  0  0  0
 14 68  1  0  0  0  0
 15 69  1  0  0  0  0
 15 70  1  0  0  0  0
 15 71  1  0  0  0  0
 16 72  1  0  0  0  0
 18 73  1  0  0  0  0
 18 74  1  0  0  0  0
 19 75  1  0  0  0  0
 20 76  1  0  0  0  0
 20 77  1  0  0  0  0
 21 78  1  0  0  0  0
 22 79  1  0  0  0  0
 22 80  1  0  0  0  0
 27 81  1  0  0  0  0
 28 82  1  0  0  0  0
 29 83  1  0  0  0  0
 29 84  1  0  0  0  0
 30 85  1  0  0  0  0
 32 86  1  0  0  0  0
 32 87  1  0  0  0  0
 33 88  1  0  0  0  0
 34 89  1  0  0  0  0
 34 90  1  0  0  0  0
 35 91  1  0  0  0  0
 35 92  1  0  0  0  0
 38 93  1  0  0  0  0
 39 94  1  0  0  0  0
 40 95  1  0  0  0  0
 41 96  1  0  0  0  0
 42 97  1  0  0  0  0
 42 98  1  0  0  0  0
 45 99  1  0  0  0  0
 46100  1  0  0  0  0
 47101  1  0  0  0  0
 47102  1  0  0  0  0
 48103  1  0  0  0  0
 48104  1  0  0  0  0
M  END
>  <energy>
112.75458171493612

$$$$
