C[N+](C)(C)CCN=C1NNc2c3[nH]c1c2C=C(Br)C(C(N)=O)=[N+]3[O-]
                    3D

 43 45  0  0  0  0  0  0  0  0999 V2000
   -2.7040    0.3604    1.0628 C   0  0  0  0  0  0  0  0  0  0  0  0
   -3.7398    0.9118    0.0932 N   0  3  0  0  0  0  0  0  0  0  0  0
   -3.9108    2.3996    0.3998 C   0  0  0  0  0  0  0  0  0  0  0  0
   -5.0524    0.1903    0.3174 C   0  0  0  0  0  0  0  0  0  0  0  0
   -3.3347    0.7740   -1.3997 C   0  0  0  0  0  0  0  0  0  0  0  0
   -2.5228   -0.4935   -1.7461 C   0  0  0  0  0  0  0  0  0  0  0  0
   -1.1233   -0.1294   -1.6041 N   0  0  0  0  0  0  0  0  0  0  0  0
   -0.2999   -0.8093   -0.9068 C   0  0  0  0  0  0  0  0  0  0  0  0
   -0.4401   -2.0185   -0.2315 N   0  0  0  0  0  0  0  0  0  0  0  0
    0.6877   -2.5053    0.4971 N   0  0  0  0  0  0  0  0  0  0  0  0
    1.7450   -1.6002    0.6676 C   0  0  0  0  0  0  0  0  0  0  0  0
    2.7670   -1.4949   -0.2873 C   0  0  0  0  0  0  0  0  0  0  0  0
    2.1199   -0.7657   -1.3047 N   0  0  0  0  0  0  0  0  0  0  0  0
    0.9991   -0.1687   -0.6732 C   0  0  0  0  0  0  0  0  0  0  0  0
    1.4860   -0.1996    0.6545 C   0  0  0  0  0  0  0  0  0  0  0  0
    2.3148    0.8054    1.2561 C   0  0  0  0  0  0  0  0  0  0  0  0
    3.6574    0.7896    1.3420 C   0  0  0  0  0  0  0  0  0  0  0  0
    4.4980    2.2080    2.2596 Br  0  0  0  0  0  0  0  0  0  0  0  0
    4.5265   -0.2645    0.7125 C   0  0  0  0  0  0  0  0  0  0  0  0
    5.9978   -0.1438    0.8670 C   0  0  0  0  0  0  0  0  0  0  0  0
    6.6302    0.5397   -0.1279 N   0  0  0  0  0  0  0  0  0  0  0  0
    6.5353   -0.6099    1.8523 O   0  0  0  0  0  0  0  0  0  0  0  0
    4.1301   -1.2911   -0.0031 N   0  3  0  0  0  0  0  0  0  0  0  0
    4.9192   -2.0925   -0.5915 O   0  5  0  0  0  0  0  0  0  0  0  0
   -2.6561   -0.7247    0.9441 H   0  0  0  0  0  0  0  0  0  0  0  0
   -3.0372    0.5843    2.0817 H   0  0  0  0  0  0  0  0  0  0  0  0
   -1.7459    0.8454    0.8688 H   0  0  0  0  0  0  0  0  0  0  0  0
   -4.6177    2.8271   -0.3168 H   0  0  0  0  0  0  0  0  0  0  0  0
   -4.2865    2.5063    1.4217 H   0  0  0  0  0  0  0  0  0  0  0  0
   -2.9343    2.8859    0.3086 H   0  0  0  0  0  0  0  0  0  0  0  0
   -4.9146   -0.8653    0.0694 H   0  0  0  0  0  0  0  0  0  0  0  0
   -5.3416    0.3037    1.3667 H   0  0  0  0  0  0  0  0  0  0  0  0
   -5.8117    0.6369   -0.3336 H   0  0  0  0  0  0  0  0  0  0  0  0
   -2.7435    1.6639   -1.6454 H   0  0  0  0  0  0  0  0  0  0  0  0
   -4.2597    0.8255   -1.9845 H   0  0  0  0  0  0  0  0  0  0  0  0
   -2.7015   -0.7438   -2.7957 H   0  0  0  0  0  0  0  0  0  0  0  0
   -2.8345   -1.3579   -1.1552 H   0  0  0  0  0  0  0  0  0  0  0  0
   -1.1396   -2.6875   -0.5326 H   0  0  0  0  0  0  0  0  0  0  0  0
    0.9847   -3.4393    0.1953 H   0  0  0  0  0  0  0  0  0  0  0  0
    2.5455   -0.4473   -2.1658 H   0  0  0  0  0  0  0  0  0  0  0  0
    1.7686    1.6303    1.7113 H   0  0  0  0  0  0  0  0  0  0  0  0
    7.6385    0.4732   -0.1124 H   0  0  0  0  0  0  0  0  0  0  0  0
    6.2011    0.6914   -1.0317 H   0  0  0  0  0  0  0  0  0  0  0  0
  2  1  1  0  0  0  0
  3  2  1  0  0  0  0
  4  2  1  0  0  0  0
  5  2  1  0  0  0  0
  6  5  1  0  0  0  0
  7  6  1  0  0  0  0
  8  7  2  0  0  0  0
  9  8  1  0  0  0  0
 10  9  1  0  0  0  0
 11 10  1  0  0  0  0
 12 11  2  0  0  0  0
 13 12  1  0  0  0  0
 14 13  1  0  0  0  0
 14  8  1  0  0  0  0
 15 14  2  0  0  0  0
 15 11  1  0  0  0  0
 16 15  1  0  0  0  0
 17 16  2  0  0  0  0
 18 17  1  0  0  0  0
 19 17  1  0  0  0  0
 20 19  1  0  0  0  0
 21 20  1  0  0  0  0
 22 20  2  0  0  0  0
 23 19  2  0  0  0  0
 23 12  1  0  0  0  0
 24 23  1  0  0  0  0
  1 25  1  0  0  0  0
  1 26  1  0  0  0  0
  1 27  1  0  0  0  0
  3 28  1  0  0  0  0
  3 29  1  0  0  0  0
  3 30  1  0  0  0  0
  4 31  1  0  0  0  0
  4 32  1  0  0  0  0
  4 33  1  0  0  0  0
  5 34  1  0  0  0  0
  5 35  1  0  0  0  0
  6 36  1  0  0  0  0
  6 37  1  0  0  0  0
  9 38  1  0  0  0  0
 10 39  1  0  0  0  0
 13 40  1  0  0  0  0
 16 41  1  0  0  0  0
 21 42  1  0  0  0  0
 21 43  1  0  0  0  0
M  CHG  3   2   1  23   1  24  -1
M  END
>  <energy>
167.49580914477531

$$$$
