N=C1c2c3c4[nH]c(c5c2C(=Nc45)NCCN1c1ccc(-c2nc4c(ccc5cccnc54)[nH]2)cc1)=CCCC3
                    3D

 63 71  0  0  0  0  0  0  0  0999 V2000
    0.1089    0.0537   -1.7774 N   0  0  0  0  0  0  0  0  0  0  0  0
    1.3224   -0.1540   -1.3538 C   0  0  0  0  0  0  0  0  0  0  0  0
    2.0745    0.8989   -0.6272 C   0  0  0  0  0  0  0  0  0  0  0  0
    1.3857    1.9591    0.0130 C   0  0  0  0  0  0  0  0  0  0  0  0
    2.0156    3.2590   -0.2177 C   0  0  0  0  0  0  0  0  0  0  0  0
    2.7746    3.6565    1.0664 N   0  0  0  0  0  0  0  0  0  0  0  0
    3.8189    2.7196    0.9295 C   0  0  0  0  0  0  0  0  0  0  0  0
    3.8824    2.4015   -0.5800 C   0  0  0  0  0  0  0  0  0  0  0  0
    3.3723    1.2323   -1.1196 C   0  0  0  0  0  0  0  0  0  0  0  0
    3.1510    1.6168   -2.5435 C   0  0  0  0  0  0  0  0  0  0  0  0
    2.8434    2.8804   -2.5673 N   0  0  0  0  0  0  0  0  0  0  0  0
    3.0264    3.2518   -1.1958 C   0  0  0  0  0  0  0  0  0  0  0  0
    3.1739    0.7467   -3.5908 N   0  0  0  0  0  0  0  0  0  0  0  0
    3.4555   -0.6826   -3.5250 C   0  0  0  0  0  0  0  0  0  0  0  0
    2.2770   -1.5742   -3.0562 C   0  0  0  0  0  0  0  0  0  0  0  0
    1.9877   -1.3616   -1.6166 N   0  0  0  0  0  0  0  0  0  0  0  0
    1.2953   -2.4509   -0.9833 C   0  0  0  0  0  0  0  0  0  0  0  0
    0.3011   -3.1995   -1.6211 C   0  0  0  0  0  0  0  0  0  0  0  0
   -0.7701   -3.7038   -0.8754 C   0  0  0  0  0  0  0  0  0  0  0  0
   -0.8562   -3.4057    0.4923 C   0  0  0  0  0  0  0  0  0  0  0  0
   -2.1508   -2.9871    1.0504 C   0  0  0  0  0  0  0  0  0  0  0  0
   -2.2848   -1.8859    1.7709 N   0  0  0  0  0  0  0  0  0  0  0  0
   -3.4683   -1.3182    1.3388 C   0  0  0  0  0  0  0  0  0  0  0  0
   -4.1969   -2.2549    0.6118 C   0  0  0  0  0  0  0  0  0  0  0  0
   -5.4266   -1.9777    0.0104 C   0  0  0  0  0  0  0  0  0  0  0  0
   -5.9075   -0.6678    0.1374 C   0  0  0  0  0  0  0  0  0  0  0  0
   -5.1868    0.3176    0.8331 C   0  0  0  0  0  0  0  0  0  0  0  0
   -5.6202    1.6468    0.9127 C   0  0  0  0  0  0  0  0  0  0  0  0
   -4.8210    2.5991    1.5469 C   0  0  0  0  0  0  0  0  0  0  0  0
   -3.6148    2.1943    2.0988 C   0  0  0  0  0  0  0  0  0  0  0  0
   -3.1721    0.9187    2.0806 N   0  0  0  0  0  0  0  0  0  0  0  0
   -3.9581    0.0071    1.4517 C   0  0  0  0  0  0  0  0  0  0  0  0
   -3.3892   -3.3737    0.5885 N   0  0  0  0  0  0  0  0  0  0  0  0
    0.2926   -2.9775    1.1573 C   0  0  0  0  0  0  0  0  0  0  0  0
    1.3713   -2.5061    0.4166 C   0  0  0  0  0  0  0  0  0  0  0  0
    3.9909    1.7236    1.8202 C   0  0  0  0  0  0  0  0  0  0  0  0
    2.9463    1.5406    2.9044 C   0  0  0  0  0  0  0  0  0  0  0  0
    1.6337    0.8765    2.3973 C   0  0  0  0  0  0  0  0  0  0  0  0
    0.7384    1.6348    1.3638 C   0  0  0  0  0  0  0  0  0  0  0  0
   -0.2220    0.9847   -1.5106 H   0  0  0  0  0  0  0  0  0  0  0  0
    3.1418    4.5899    0.8531 H   0  0  0  0  0  0  0  0  0  0  0  0
    2.7856    1.1110   -4.4552 H   0  0  0  0  0  0  0  0  0  0  0  0
    3.7367   -0.9979   -4.5339 H   0  0  0  0  0  0  0  0  0  0  0  0
    4.3355   -0.8631   -2.8926 H   0  0  0  0  0  0  0  0  0  0  0  0
    1.3911   -1.3782   -3.6745 H   0  0  0  0  0  0  0  0  0  0  0  0
    2.5840   -2.6170   -3.2161 H   0  0  0  0  0  0  0  0  0  0  0  0
    0.2048   -3.2045   -2.7017 H   0  0  0  0  0  0  0  0  0  0  0  0
   -1.6253   -4.0872   -1.4214 H   0  0  0  0  0  0  0  0  0  0  0  0
   -5.9600   -2.7172   -0.5750 H   0  0  0  0  0  0  0  0  0  0  0  0
   -6.8441   -0.4100   -0.3559 H   0  0  0  0  0  0  0  0  0  0  0  0
   -6.5610    1.9544    0.4662 H   0  0  0  0  0  0  0  0  0  0  0  0
   -5.1250    3.6379    1.5971 H   0  0  0  0  0  0  0  0  0  0  0  0
   -2.9485    2.9085    2.5776 H   0  0  0  0  0  0  0  0  0  0  0  0
   -3.5622   -4.1957    0.0337 H   0  0  0  0  0  0  0  0  0  0  0  0
    0.2593   -2.7711    2.2253 H   0  0  0  0  0  0  0  0  0  0  0  0
    2.1649   -1.9725    0.9299 H   0  0  0  0  0  0  0  0  0  0  0  0
    4.6039    0.8633    1.5743 H   0  0  0  0  0  0  0  0  0  0  0  0
    3.3833    0.8893    3.6694 H   0  0  0  0  0  0  0  0  0  0  0  0
    2.7162    2.4875    3.4061 H   0  0  0  0  0  0  0  0  0  0  0  0
    1.0094    0.6699    3.2745 H   0  0  0  0  0  0  0  0  0  0  0  0
    1.8944   -0.1079    2.0038 H   0  0  0  0  0  0  0  0  0  0  0  0
   -0.1459    1.0177    1.1612 H   0  0  0  0  0  0  0  0  0  0  0  0
    0.3668    2.5539    1.8228 H   0  0  0  0  0  0  0  0  0  0  0  0
  2  1  2  0  0  0  0
  3  2  1  0  0  0  0
  4  3  2  0  0  0  0
  5  4  1  0  0  0  0
  6  5  1  0  0  0  0
  7  6  1  0  0  0  0
  8  7  1  0  0  0  0
  9  8  2  0  0  0  0
  9  3  1  0  0  0  0
 10  9  1  0  0  0  0
 11 10  2  0  0  0  0
 12 11  1  0  0  0  0
 12  5  2  0  0  0  0
 12  8  1  0  0  0  0
 13 10  1  0  0  0  0
 14 13  1  0  0  0  0
 15 14  1  0  0  0  0
 16 15  1  0  0  0  0
 16  2  1  0  0  0  0
 17 16  1  0  0  0  0
 18 17  2  0  0  0  0
 19 18  1  0  0  0  0
 20 19  2  0  0  0  0
 21 20  1  0  0  0  0
 22 21  2  0  0  0  0
 23 22  1  0  0  0  0
 24 23  2  0  0  0  0
 25 24  1  0  0  0  0
 26 25  2  0  0  0  0
 27 26  1  0  0  0  0
 28 27  2  0  0  0  0
 29 28  1  0  0  0  0
 30 29  2  0  0  0  0
 31 30  1  0  0  0  0
 32 31  2  0  0  0  0
 32 27  1  0  0  0  0
 32 23  1  0  0  0  0
 33 24  1  0  0  0  0
 33 21  1  0  0  0  0
 34 20  1  0  0  0  0
 35 34  2  0  0  0  0
 35 17  1  0  0  0  0
 36  7  2  0  0  0  0
 37 36  1  0  0  0  0
 38 37  1  0  0  0  0
 39 38  1  0  0  0  0
 39  4  1  0  0  0  0
  1 40  1  0  0  0  0
  6 41  1  0  0  0  0
 13 42  1  0  0  0  0
 14 43  1  0  0  0  0
 14 44  1  0  0  0  0
 15 45  1  0  0  0  0
 15 46  1  0  0  0  0
 18 47  1  0  0  0  0
 19 48  1  0  0  0  0
 25 49  1  0  0  0  0
 26 50  1  0  0  0  0
 28 51  1  0  0  0  0
 29 52  1  0  0  0  0
 30 53  1  0  0  0  0
 33 54  1  0  0  0  0
 34 55  1  0  0  0  0
 35 56  1  0  0  0  0
 36 57  1  0  0  0  0
 37 58  1  0  0  0  0
 37 59  1  0  0  0  0
 38 60  1  0  0  0  0
 38 61  1  0  0  0  0
 39 62  1  0  0  0  0
 39 63  1  0  0  0  0
M  END
>  <energy>
373.66289778746841

$$$$
