C=C1CC1C=CC=CC=CC1C(=O)C(CO)CC23C(O)N(C4=C(C)C2(O)C(C)(C)C42C(C)C=CC4OC(OC)C42)C
                    3D

 84 90  0  0  0  0  0  0  0  0999 V2000
   -5.8590    1.9755   -2.5694 C   0  0  0  0  0  0  0  0  0  0  0  0
   -5.5275    2.9122   -1.6705 C   0  0  0  0  0  0  0  0  0  0  0  0
   -5.8778    2.8081   -0.2416 C   0  0  0  0  0  0  0  0  0  0  0  0
   -4.4678    2.7844   -0.6412 C   0  0  0  0  0  0  0  0  0  0  0  0
   -3.6306    3.9727   -0.4391 C   0  0  0  0  0  0  0  0  0  0  0  0
   -2.3978    4.2233   -0.9195 C   0  0  0  0  0  0  0  0  0  0  0  0
   -1.6050    3.3095   -1.7052 C   0  0  0  0  0  0  0  0  0  0  0  0
   -0.5046    3.6938   -2.3693 C   0  0  0  0  0  0  0  0  0  0  0  0
    0.3000    2.7670   -3.1272 C   0  0  0  0  0  0  0  0  0  0  0  0
    1.3537    2.1002   -2.6325 C   0  0  0  0  0  0  0  0  0  0  0  0
    1.9545    2.2675   -1.2547 C   0  0  0  0  0  0  0  0  0  0  0  0
    3.4879    2.2625   -1.2649 C   0  0  0  0  0  0  0  0  0  0  0  0
    4.1015    2.7878   -2.1988 O   0  0  0  0  0  0  0  0  0  0  0  0
    4.2528    1.7266   -0.0426 C   0  0  0  0  0  0  0  0  0  0  0  0
    5.3229    0.6546   -0.3494 C   0  0  0  0  0  0  0  0  0  0  0  0
    5.4993    0.3333   -1.7177 O   0  0  0  0  0  0  0  0  0  0  0  0
    3.3863    1.3084    1.1636 C   0  0  0  0  0  0  0  0  0  0  0  0
    2.1252    0.5419    0.7957 C   0  0  0  0  0  0  0  0  0  0  0  0
    2.0554   -0.4900   -0.3908 C   0  0  0  0  0  0  0  0  0  0  0  0
    2.8502   -0.3501   -1.5750 O   0  0  0  0  0  0  0  0  0  0  0  0
    0.6923   -0.0067   -0.5422 N   0  0  0  0  0  0  0  0  0  0  0  0
   -0.3033   -0.4194    0.4633 C   0  0  0  0  0  0  0  0  0  0  0  0
   -0.2128    0.3708    1.5645 C   0  0  0  0  0  0  0  0  0  0  0  0
   -1.2181    1.2945    2.1475 C   0  0  0  0  0  0  0  0  0  0  0  0
    1.1862    0.1157    2.0466 C   0  0  0  0  0  0  0  0  0  0  0  0
    1.5328    0.8392    3.2078 O   0  0  0  0  0  0  0  0  0  0  0  0
    0.9507   -1.4359    2.3217 C   0  0  0  0  0  0  0  0  0  0  0  0
    0.3528   -1.6154    3.7568 C   0  0  0  0  0  0  0  0  0  0  0  0
    2.2721   -2.2289    2.4168 C   0  0  0  0  0  0  0  0  0  0  0  0
   -0.1437   -1.8501    1.1312 C   0  0  0  0  0  0  0  0  0  0  0  0
   -1.5990   -2.2541    1.6542 C   0  0  0  0  0  0  0  0  0  0  0  0
   -2.7686   -1.9907    0.6802 C   0  0  0  0  0  0  0  0  0  0  0  0
   -1.7017   -3.6908    2.0992 C   0  0  0  0  0  0  0  0  0  0  0  0
   -1.0652   -4.6920    1.4813 C   0  0  0  0  0  0  0  0  0  0  0  0
   -0.2071   -4.4105    0.3184 C   0  0  0  0  0  0  0  0  0  0  0  0
   -0.8743   -4.2643   -0.9585 O   0  0  0  0  0  0  0  0  0  0  0  0
   -0.0899   -3.0800   -1.2518 C   0  0  0  0  0  0  0  0  0  0  0  0
    0.9840   -3.3088   -2.1910 O   0  0  0  0  0  0  0  0  0  0  0  0
    0.5836   -3.6075   -3.5176 C   0  0  0  0  0  0  0  0  0  0  0  0
    0.3768   -2.9835    0.2182 C   0  0  0  0  0  0  0  0  0  0  0  0
    1.2637    1.3686   -0.2268 C   0  0  0  0  0  0  0  0  0  0  0  0
   -5.8417    0.9175   -2.3322 H   0  0  0  0  0  0  0  0  0  0  0  0
   -6.1857    2.2709   -3.5618 H   0  0  0  0  0  0  0  0  0  0  0  0
   -6.3293    3.7055    0.1621 H   0  0  0  0  0  0  0  0  0  0  0  0
   -6.3426    1.8840    0.0806 H   0  0  0  0  0  0  0  0  0  0  0  0
   -3.9562    1.8275   -0.6055 H   0  0  0  0  0  0  0  0  0  0  0  0
   -4.0694    4.7678    0.1632 H   0  0  0  0  0  0  0  0  0  0  0  0
   -1.9498    5.1904   -0.6981 H   0  0  0  0  0  0  0  0  0  0  0  0
   -1.9185    2.2683   -1.7506 H   0  0  0  0  0  0  0  0  0  0  0  0
   -0.1799    4.7305   -2.3821 H   0  0  0  0  0  0  0  0  0  0  0  0
    0.0124    2.6175   -4.1669 H   0  0  0  0  0  0  0  0  0  0  0  0
    1.8839    1.4210   -3.2974 H   0  0  0  0  0  0  0  0  0  0  0  0
    1.7581    3.3034   -0.9299 H   0  0  0  0  0  0  0  0  0  0  0  0
    4.8115    2.6071    0.3130 H   0  0  0  0  0  0  0  0  0  0  0  0
    6.2934    0.9956    0.0332 H   0  0  0  0  0  0  0  0  0  0  0  0
    5.1061   -0.2856    0.1700 H   0  0  0  0  0  0  0  0  0  0  0  0
    4.6299    0.0385   -2.0548 H   0  0  0  0  0  0  0  0  0  0  0  0
    3.9873    0.7331    1.8779 H   0  0  0  0  0  0  0  0  0  0  0  0
    3.0915    2.2256    1.6894 H   0  0  0  0  0  0  0  0  0  0  0  0
    2.1690   -1.5130   -0.1127 H   0  0  0  0  0  0  0  0  0  0  0  0
    2.3363   -0.8641   -2.2311 H   0  0  0  0  0  0  0  0  0  0  0  0
   -0.8419    2.3217    2.1500 H   0  0  0  0  0  0  0  0  0  0  0  0
   -2.1484    1.2789    1.5715 H   0  0  0  0  0  0  0  0  0  0  0  0
   -1.4594    1.0191    3.1780 H   0  0  0  0  0  0  0  0  0  0  0  0
    1.1927    1.7445    3.1189 H   0  0  0  0  0  0  0  0  0  0  0  0
    1.0824   -1.3325    4.5248 H   0  0  0  0  0  0  0  0  0  0  0  0
   -0.5238   -0.9919    3.9453 H   0  0  0  0  0  0  0  0  0  0  0  0
    0.0903   -2.6607    3.9491 H   0  0  0  0  0  0  0  0  0  0  0  0
    2.8544   -1.9157    3.2915 H   0  0  0  0  0  0  0  0  0  0  0  0
    2.9508   -2.1068    1.5754 H   0  0  0  0  0  0  0  0  0  0  0  0
    2.0721   -3.2997    2.5368 H   0  0  0  0  0  0  0  0  0  0  0  0
   -1.8471   -1.6371    2.5251 H   0  0  0  0  0  0  0  0  0  0  0  0
   -2.6753   -2.5363   -0.2606 H   0  0  0  0  0  0  0  0  0  0  0  0
   -2.8795   -0.9252    0.4464 H   0  0  0  0  0  0  0  0  0  0  0  0
   -3.7184   -2.3046    1.1321 H   0  0  0  0  0  0  0  0  0  0  0  0
   -2.3581   -3.9089    2.9362 H   0  0  0  0  0  0  0  0  0  0  0  0
   -1.1932   -5.7201    1.8034 H   0  0  0  0  0  0  0  0  0  0  0  0
    0.5598   -5.1924    0.2290 H   0  0  0  0  0  0  0  0  0  0  0  0
   -0.7309   -2.2611   -1.5938 H   0  0  0  0  0  0  0  0  0  0  0  0
   -0.0741   -4.4794   -3.5318 H   0  0  0  0  0  0  0  0  0  0  0  0
    0.0782   -2.7428   -3.9546 H   0  0  0  0  0  0  0  0  0  0  0  0
    1.4776   -3.8309   -4.1051 H   0  0  0  0  0  0  0  0  0  0  0  0
    1.4556   -3.1337    0.3024 H   0  0  0  0  0  0  0  0  0  0  0  0
    0.4988    2.0345    0.1939 H   0  0  0  0  0  0  0  0  0  0  0  0
  2  1  2  0  0  0  0
  3  2  1  0  0  0  0
  4  3  1  0  0  0  0
  4  2  1  0  0  0  0
  5  4  1  0  0  0  0
  6  5  2  0  0  0  0
  7  6  1  0  0  0  0
  8  7  2  0  0  0  0
  9  8  1  0  0  0  0
 10  9  2  0  0  0  0
 11 10  1  0  0  0  0
 12 11  1  0  0  0  0
 13 12  2  0  0  0  0
 14 12  1  0  0  0  0
 15 14  1  0  0  0  0
 16 15  1  0  0  0  0
 17 14  1  0  0  0  0
 18 17  1  0  0  0  0
 19 18  1  0  0  0  0
 20 19  1  0  0  0  0
 21 19  1  0  0  0  0
 22 21  1  0  0  0  0
 23 22  2  0  0  0  0
 24 23  1  0  0  0  0
 25 23  1  0  0  0  0
 25 18  1  0  0  0  0
 26 25  1  0  0  0  0
 27 25  1  0  0  0  0
 28 27  1  0  0  0  0
 29 27  1  0  0  0  0
 30 27  1  0  0  0  0
 30 22  1  0  0  0  0
 31 30  1  0  0  0  0
 32 31  1  0  0  0  0
 33 31  1  0  0  0  0
 34 33  2  0  0  0  0
 35 34  1  0  0  0  0
 36 35  1  0  0  0  0
 37 36  1  0  0  0  0
 38 37  1  0  0  0  0
 39 38  1  0  0  0  0
 40 37  1  0  0  0  0
 40 35  1  0  0  0  0
 40 30  1  0  0  0  0
 41 21  1  0  0  0  0
 41 11  1  0  0  0  0
 41 18  1  0  0  0  0
  1 42  1  0  0  0  0
  1 43  1  0  0  0  0
  3 44  1  0  0  0  0
  3 45  1  0  0  0  0
  4 46  1  0  0  0  0
  5 47  1  0  0  0  0
  6 48  1  0  0  0  0
  7 49  1  0  0  0  0
  8 50  1  0  0  0  0
  9 51  1  0  0  0  0
 10 52  1  0  0  0  0
 11 53  1  0  0  0  0
 14 54  1  0  0  0  0
 15 55  1  0  0  0  0
 15 56  1  0  0  0  0
 16 57  1  0  0  0  0
 17 58  1  0  0  0  0
 17 59  1  0  0  0  0
 19 60  1  0  0  0  0
 20 61  1  0  0  0  0
 24 62  1  0  0  0  0
 24 63  1  0  0  0  0
 24 64  1  0  0  0  0
 26 65  1  0  0  0  0
 28 66  1  0  0  0  0
 28 67  1  0  0  0  0
 28 68  1  0  0  0  0
 29 69  1  0  0  0  0
 29 70  1  0  0  0  0
 29 71  1  0  0  0  0
 31 72  1  0  0  0  0
 32 73  1  0  0  0  0
 32 74  1  0  0  0  0
 32 75  1  0  0  0  0
 33 76  1  0  0  0  0
 34 77  1  0  0  0  0
 35 78  1  0  0  0  0
 37 79  1  0  0  0  0
 39 80  1  0  0  0  0
 39 81  1  0  0  0  0
 39 82  1  0  0  0  0
 40 83  1  0  0  0  0
 41 84  1  0  0  0  0
M  END
>  <energy>
215.56282152235514

$$$$
