CNC(=S)N1C2CC(Cl)C23CCN1C3
                    3D

 28 30  0  0  0  0  0  0  0  0999 V2000
   -3.9838    0.0761   -0.4892 C   0  0  0  0  0  0  0  0  0  0  0  0
   -2.5420   -0.0634   -0.5690 N   0  0  0  0  0  0  0  0  0  0  0  0
   -1.6201    0.9588   -0.7677 C   0  0  0  0  0  0  0  0  0  0  0  0
   -2.0645    2.5195   -1.2052 S   0  0  0  0  0  0  0  0  0  0  0  0
   -0.3045    0.5596   -0.5287 N   0  0  0  0  0  0  0  0  0  0  0  0
    0.2341   -0.7824   -0.2996 C   0  0  0  0  0  0  0  0  0  0  0  0
    0.2013   -1.6472    0.9548 C   0  0  0  0  0  0  0  0  0  0  0  0
    1.7430   -1.8635    0.6813 C   0  0  0  0  0  0  0  0  0  0  0  0
    2.2419   -3.2063   -0.4089 Cl  0  0  0  0  0  0  0  0  0  0  0  0
    1.7207   -0.4161    0.1077 C   0  0  0  0  0  0  0  0  0  0  0  0
    1.8760    0.7055    1.1764 C   0  0  0  0  0  0  0  0  0  0  0  0
    1.3366    1.9475    0.4359 C   0  0  0  0  0  0  0  0  0  0  0  0
    0.8560    1.4048   -0.8684 N   0  0  0  0  0  0  0  0  0  0  0  0
    1.9245    0.3810   -1.1638 C   0  0  0  0  0  0  0  0  0  0  0  0
   -4.3637    0.7311   -1.2754 H   0  0  0  0  0  0  0  0  0  0  0  0
   -4.4185   -0.9211   -0.6037 H   0  0  0  0  0  0  0  0  0  0  0  0
   -4.2345    0.4795    0.4971 H   0  0  0  0  0  0  0  0  0  0  0  0
   -2.1725   -0.9627   -0.3098 H   0  0  0  0  0  0  0  0  0  0  0  0
    0.1161   -1.3892   -1.2122 H   0  0  0  0  0  0  0  0  0  0  0  0
   -0.4098   -2.5499    0.8903 H   0  0  0  0  0  0  0  0  0  0  0  0
   -0.0471   -1.1325    1.8892 H   0  0  0  0  0  0  0  0  0  0  0  0
    2.3453   -1.9833    1.5890 H   0  0  0  0  0  0  0  0  0  0  0  0
    2.9334    0.8334    1.4364 H   0  0  0  0  0  0  0  0  0  0  0  0
    1.3118    0.5253    2.0942 H   0  0  0  0  0  0  0  0  0  0  0  0
    0.5404    2.4427    1.0059 H   0  0  0  0  0  0  0  0  0  0  0  0
    2.1323    2.6793    0.2733 H   0  0  0  0  0  0  0  0  0  0  0  0
    2.9217    0.8315   -1.2297 H   0  0  0  0  0  0  0  0  0  0  0  0
    1.7259   -0.1580   -2.1003 H   0  0  0  0  0  0  0  0  0  0  0  0
  2  1  1  0  0  0  0
  3  2  1  0  0  0  0
  4  3  2  0  0  0  0
  5  3  1  0  0  0  0
  6  5  1  0  0  0  0
  7  6  1  0  0  0  0
  8  7  1  0  0  0  0
  9  8  1  0  0  0  0
 10  8  1  0  0  0  0
 10  6  1  0  0  0  0
 11 10  1  0  0  0  0
 12 11  1  0  0  0  0
 13 12  1  0  0  0  0
 13  5  1  0  0  0  0
 14 13  1  0  0  0  0
 14 10  1  0  0  0  0
  1 15  1  0  0  0  0
  1 16  1  0  0  0  0
  1 17  1  0  0  0  0
  2 18  1  0  0  0  0
  6 19  1  0  0  0  0
  7 20  1  0  0  0  0
  7 21  1  0  0  0  0
  8 22  1  0  0  0  0
 11 23  1  0  0  0  0
 11 24  1  0  0  0  0
 12 25  1  0  0  0  0
 12 26  1  0  0  0  0
 14 27  1  0  0  0  0
 14 28  1  0  0  0  0
M  END
>  <energy>
51.22719661969488

$$$$
