COc1cc(OC)c2c(c1)C(C(F)(F)F)C1=C(NCO2)Nc2cc(NC3CCCCC3)cc1c2
                    3D

 62 66  0  0  0  0  0  0  0  0999 V2000
    1.7549   -3.9480    0.8120 C   0  0  0  0  0  0  0  0  0  0  0  0
    1.3490   -3.0412   -0.2110 O   0  0  0  0  0  0  0  0  0  0  0  0
    1.9617   -1.8170   -0.1709 C   0  0  0  0  0  0  0  0  0  0  0  0
    3.2754   -1.6010    0.2520 C   0  0  0  0  0  0  0  0  0  0  0  0
    3.7770   -0.2980    0.2812 C   0  0  0  0  0  0  0  0  0  0  0  0
    5.0450   -0.0722    0.7496 O   0  0  0  0  0  0  0  0  0  0  0  0
    5.9882   -0.3099   -0.2985 C   0  0  0  0  0  0  0  0  0  0  0  0
    2.9732    0.7779   -0.1020 C   0  0  0  0  0  0  0  0  0  0  0  0
    1.6945    0.5675   -0.6240 C   0  0  0  0  0  0  0  0  0  0  0  0
    1.1873   -0.7449   -0.6297 C   0  0  0  0  0  0  0  0  0  0  0  0
    0.8464    1.7415   -1.1105 C   0  0  0  0  0  0  0  0  0  0  0  0
    1.5222    2.6808   -2.1253 C   0  0  0  0  0  0  0  0  0  0  0  0
    2.1748    3.7259   -1.5695 F   0  0  0  0  0  0  0  0  0  0  0  0
    0.5838    3.2123   -2.9608 F   0  0  0  0  0  0  0  0  0  0  0  0
    2.3943    2.0222   -2.9261 F   0  0  0  0  0  0  0  0  0  0  0  0
    0.1450    2.5031    0.0138 C   0  0  0  0  0  0  0  0  0  0  0  0
    0.5389    2.6547    1.3165 C   0  0  0  0  0  0  0  0  0  0  0  0
    1.7697    2.2881    1.8159 N   0  0  0  0  0  0  0  0  0  0  0  0
    3.0840    2.6303    1.2803 C   0  0  0  0  0  0  0  0  0  0  0  0
    3.4154    2.0643    0.0038 O   0  0  0  0  0  0  0  0  0  0  0  0
   -0.3897    3.1367    2.2939 N   0  0  0  0  0  0  0  0  0  0  0  0
   -1.7591    3.3390    1.7647 C   0  0  0  0  0  0  0  0  0  0  0  0
   -2.6055    2.2084    1.8101 C   0  0  0  0  0  0  0  0  0  0  0  0
   -2.8867    1.5400    0.5994 C   0  0  0  0  0  0  0  0  0  0  0  0
   -3.7053    0.4023    0.5612 N   0  0  0  0  0  0  0  0  0  0  0  0
   -3.1119   -0.8011   -0.0406 C   0  0  0  0  0  0  0  0  0  0  0  0
   -3.6874   -1.0422   -1.4433 C   0  0  0  0  0  0  0  0  0  0  0  0
   -3.0658   -2.2874   -2.0754 C   0  0  0  0  0  0  0  0  0  0  0  0
   -3.2500   -3.5180   -1.1918 C   0  0  0  0  0  0  0  0  0  0  0  0
   -2.7749   -3.2834    0.2408 C   0  0  0  0  0  0  0  0  0  0  0  0
   -3.3882   -2.0220    0.8468 C   0  0  0  0  0  0  0  0  0  0  0  0
   -2.1878    1.9967   -0.5336 C   0  0  0  0  0  0  0  0  0  0  0  0
   -1.2552    3.0161   -0.3426 C   0  0  0  0  0  0  0  0  0  0  0  0
   -1.7356    3.9561    0.5334 C   0  0  0  0  0  0  0  0  0  0  0  0
    1.8335   -3.4552    1.7881 H   0  0  0  0  0  0  0  0  0  0  0  0
    2.6987   -4.4345    0.5441 H   0  0  0  0  0  0  0  0  0  0  0  0
    0.9844   -4.7230    0.8897 H   0  0  0  0  0  0  0  0  0  0  0  0
    3.9149   -2.4165    0.5751 H   0  0  0  0  0  0  0  0  0  0  0  0
    5.7324    0.2517   -1.2055 H   0  0  0  0  0  0  0  0  0  0  0  0
    6.0621   -1.3817   -0.5184 H   0  0  0  0  0  0  0  0  0  0  0  0
    6.9702    0.0312    0.0437 H   0  0  0  0  0  0  0  0  0  0  0  0
    0.1737   -0.9448   -0.9671 H   0  0  0  0  0  0  0  0  0  0  0  0
    0.0704    1.2438   -1.7065 H   0  0  0  0  0  0  0  0  0  0  0  0
    1.7559    2.3326    2.8280 H   0  0  0  0  0  0  0  0  0  0  0  0
    3.1604    3.7206    1.1852 H   0  0  0  0  0  0  0  0  0  0  0  0
    3.8591    2.3203    1.9938 H   0  0  0  0  0  0  0  0  0  0  0  0
   -0.0493    4.0759    2.5077 H   0  0  0  0  0  0  0  0  0  0  0  0
   -2.8186    1.7290    2.7619 H   0  0  0  0  0  0  0  0  0  0  0  0
   -4.1523    0.2278    1.4605 H   0  0  0  0  0  0  0  0  0  0  0  0
   -2.0226   -0.7002   -0.1113 H   0  0  0  0  0  0  0  0  0  0  0  0
   -4.7791   -1.1592   -1.3899 H   0  0  0  0  0  0  0  0  0  0  0  0
   -3.5087   -0.1860   -2.1020 H   0  0  0  0  0  0  0  0  0  0  0  0
   -1.9949   -2.1118   -2.2408 H   0  0  0  0  0  0  0  0  0  0  0  0
   -3.5162   -2.4660   -3.0588 H   0  0  0  0  0  0  0  0  0  0  0  0
   -4.3119   -3.7932   -1.1787 H   0  0  0  0  0  0  0  0  0  0  0  0
   -2.7055   -4.3640   -1.6251 H   0  0  0  0  0  0  0  0  0  0  0  0
   -1.6816   -3.1918    0.2493 H   0  0  0  0  0  0  0  0  0  0  0  0
   -3.0304   -4.1502    0.8609 H   0  0  0  0  0  0  0  0  0  0  0  0
   -4.4713   -2.1627    0.9713 H   0  0  0  0  0  0  0  0  0  0  0  0
   -2.9757   -1.8591    1.8495 H   0  0  0  0  0  0  0  0  0  0  0  0
   -2.2020    1.4426   -1.4603 H   0  0  0  0  0  0  0  0  0  0  0  0
   -2.6728    4.4469    0.2357 H   0  0  0  0  0  0  0  0  0  0  0  0
  2  1  1  0  0  0  0
  3  2  1  0  0  0  0
  4  3  2  0  0  0  0
  5  4  1  0  0  0  0
  6  5  1  0  0  0  0
  7  6  1  0  0  0  0
  8  5  2  0  0  0  0
  9  8  1  0  0  0  0
 10  9  2  0  0  0  0
 10  3  1  0  0  0  0
 11  9  1  0  0  0  0
 12 11  1  0  0  0  0
 13 12  1  0  0  0  0
 14 12  1  0  0  0  0
 15 12  1  0  0  0  0
 16 11  1  0  0  0  0
 17 16  2  0  0  0  0
 18 17  1  0  0  0  0
 19 18  1  0  0  0  0
 20 19  1  0  0  0  0
 20  8  1  0  0  0  0
 21 17  1  0  0  0  0
 22 21  1  0  0  0  0
 23 22  2  0  0  0  0
 24 23  1  0  0  0  0
 25 24  1  0  0  0  0
 26 25  1  0  0  0  0
 27 26  1  0  0  0  0
 28 27  1  0  0  0  0
 29 28  1  0  0  0  0
 30 29  1  0  0  0  0
 31 30  1  0  0  0  0
 31 26  1  0  0  0  0
 32 24  2  0  0  0  0
 33 32  1  0  0  0  0
 33 16  1  0  0  0  0
 34 33  2  0  0  0  0
 34 22  1  0  0  0  0
  1 35  1  0  0  0  0
  1 36  1  0  0  0  0
  1 37  1  0  0  0  0
  4 38  1  0  0  0  0
  7 39  1  0  0  0  0
  7 40  1  0  0  0  0
  7 41  1  0  0  0  0
 10 42  1  0  0  0  0
 11 43  1  0  0  0  0
 18 44  1  0  0  0  0
 19 45  1  0  0  0  0
 19 46  1  0  0  0  0
 21 47  1  0  0  0  0
 23 48  1  0  0  0  0
 25 49  1  0  0  0  0
 26 50  1  0  0  0  0
 27 51  1  0  0  0  0
 27 52  1  0  0  0  0
 28 53  1  0  0  0  0
 28 54  1  0  0  0  0
 29 55  1  0  0  0  0
 29 56  1  0  0  0  0
 30 57  1  0  0  0  0
 30 58  1  0  0  0  0
 31 59  1  0  0  0  0
 31 60  1  0  0  0  0
 32 61  1  0  0  0  0
 34 62  1  0  0  0  0
M  END
>  <energy>
165.51836454090352

$$$$
