NNCN1C(=O)NC[N+]2=C3NC(=C(C(=O)NCC(=O)OCO)S3)N=C12
                    3D

 40 42  0  0  0  0  0  0  0  0999 V2000
   -3.2084    3.6502    0.1920 N   0  0  0  0  0  0  0  0  0  0  0  0
   -3.3677    2.3427   -0.4373 N   0  0  0  0  0  0  0  0  0  0  0  0
   -3.2115    1.2759    0.5521 C   0  0  0  0  0  0  0  0  0  0  0  0
   -2.9943    0.0188   -0.1631 N   0  0  0  0  0  0  0  0  0  0  0  0
   -4.1117   -0.5417   -0.7983 C   0  0  0  0  0  0  0  0  0  0  0  0
   -5.1665    0.0587   -0.8527 O   0  0  0  0  0  0  0  0  0  0  0  0
   -3.9193   -1.7728   -1.3237 N   0  0  0  0  0  0  0  0  0  0  0  0
   -2.8810   -2.5879   -0.8393 C   0  0  0  0  0  0  0  0  0  0  0  0
   -1.6735   -1.8370   -0.8925 N   0  3  0  0  0  0  0  0  0  0  0  0
   -0.4495   -2.3178   -1.0352 C   0  0  0  0  0  0  0  0  0  0  0  0
    0.4773   -1.3964   -1.1837 N   0  0  0  0  0  0  0  0  0  0  0  0
    0.5143   -0.8571    0.1066 C   0  0  0  0  0  0  0  0  0  0  0  0
    0.8409   -1.8776    0.9713 C   0  0  0  0  0  0  0  0  0  0  0  0
    2.3453   -1.9872    1.0011 C   0  0  0  0  0  0  0  0  0  0  0  0
    2.9570   -2.5881    0.1196 O   0  0  0  0  0  0  0  0  0  0  0  0
    2.9314   -1.1947    1.9625 N   0  0  0  0  0  0  0  0  0  0  0  0
    4.2221   -0.5713    1.6495 C   0  0  0  0  0  0  0  0  0  0  0  0
    3.9648    0.4740    0.5662 C   0  0  0  0  0  0  0  0  0  0  0  0
    3.0474    0.4031   -0.2519 O   0  0  0  0  0  0  0  0  0  0  0  0
    4.8248    1.5072    0.6487 O   0  0  0  0  0  0  0  0  0  0  0  0
    4.5173    2.5785   -0.2428 C   0  0  0  0  0  0  0  0  0  0  0  0
    5.0149    2.3313   -1.5423 O   0  0  0  0  0  0  0  0  0  0  0  0
    0.0976   -3.4458    0.2296 S   0  0  0  0  0  0  0  0  0  0  0  0
   -0.6484   -0.0985    0.3019 N   0  0  0  0  0  0  0  0  0  0  0  0
   -1.7257   -0.5747   -0.2602 C   0  0  0  0  0  0  0  0  0  0  0  0
   -2.8596    4.3332   -0.4925 H   0  0  0  0  0  0  0  0  0  0  0  0
   -4.0978    4.0725    0.5002 H   0  0  0  0  0  0  0  0  0  0  0  0
   -4.2972    2.2641   -0.8772 H   0  0  0  0  0  0  0  0  0  0  0  0
   -2.3828    1.4655    1.2368 H   0  0  0  0  0  0  0  0  0  0  0  0
   -4.1043    1.1820    1.1836 H   0  0  0  0  0  0  0  0  0  0  0  0
   -4.7781   -2.2095   -1.6423 H   0  0  0  0  0  0  0  0  0  0  0  0
   -2.8151   -3.5057   -1.4300 H   0  0  0  0  0  0  0  0  0  0  0  0
   -3.1044   -2.8543    0.1977 H   0  0  0  0  0  0  0  0  0  0  0  0
    1.4065   -1.7205   -1.4830 H   0  0  0  0  0  0  0  0  0  0  0  0
    2.3402   -0.6766    2.6020 H   0  0  0  0  0  0  0  0  0  0  0  0
    4.9403   -1.3156    1.2954 H   0  0  0  0  0  0  0  0  0  0  0  0
    4.5711   -0.0898    2.5676 H   0  0  0  0  0  0  0  0  0  0  0  0
    4.9984    3.4774    0.1491 H   0  0  0  0  0  0  0  0  0  0  0  0
    3.4407    2.7874   -0.2832 H   0  0  0  0  0  0  0  0  0  0  0  0
    4.3446    1.7980   -2.0026 H   0  0  0  0  0  0  0  0  0  0  0  0
  2  1  1  0  0  0  0
  3  2  1  0  0  0  0
  4  3  1  0  0  0  0
  5  4  1  0  0  0  0
  6  5  2  0  0  0  0
  7  5  1  0  0  0  0
  8  7  1  0  0  0  0
  9  8  1  0  0  0  0
 10  9  2  0  0  0  0
 11 10  1  0  0  0  0
 12 11  1  0  0  0  0
 13 12  2  0  0  0  0
 14 13  1  0  0  0  0
 15 14  2  0  0  0  0
 16 14  1  0  0  0  0
 17 16  1  0  0  0  0
 18 17  1  0  0  0  0
 19 18  2  0  0  0  0
 20 18  1  0  0  0  0
 21 20  1  0  0  0  0
 22 21  1  0  0  0  0
 23 13  1  0  0  0  0
 23 10  1  0  0  0  0
 24 12  1  0  0  0  0
 25 24  2  0  0  0  0
 25  4  1  0  0  0  0
 25  9  1  0  0  0  0
  1 26  1  0  0  0  0
  1 27  1  0  0  0  0
  2 28  1  0  0  0  0
  3 29  1  0  0  0  0
  3 30  1  0  0  0  0
  7 31  1  0  0  0  0
  8 32  1  0  0  0  0
  8 33  1  0  0  0  0
 11 34  1  0  0  0  0
 16 35  1  0  0  0  0
 17 36  1  0  0  0  0
 17 37  1  0  0  0  0
 21 38  1  0  0  0  0
 21 39  1  0  0  0  0
 22 40  1  0  0  0  0
M  CHG  1   9   1
M  END
>  <energy>
-304.81403376281787

$$$$
