Cc1ccc(C2c3cccc4c3C(=O)c3c(n(C)c5ccccc35)CN4c3cc4ccccc4nc32)cc1O
                    3D

 64 71  0  0  0  0  0  0  0  0999 V2000
    3.8710    3.4367   -3.0941 C   0  0  0  0  0  0  0  0  0  0  0  0
    3.1881    2.1521   -2.7332 C   0  0  0  0  0  0  0  0  0  0  0  0
    1.9944    1.8131   -3.3702 C   0  0  0  0  0  0  0  0  0  0  0  0
    1.3136    0.6335   -3.0393 C   0  0  0  0  0  0  0  0  0  0  0  0
    1.7565   -0.2217   -2.0229 C   0  0  0  0  0  0  0  0  0  0  0  0
    0.9764   -1.4921   -1.5862 C   0  0  0  0  0  0  0  0  0  0  0  0
   -0.2633   -1.8008   -2.4708 C   0  0  0  0  0  0  0  0  0  0  0  0
   -0.2295   -3.0236   -3.1717 C   0  0  0  0  0  0  0  0  0  0  0  0
   -1.2034   -3.9703   -2.8871 C   0  0  0  0  0  0  0  0  0  0  0  0
   -2.0384   -3.6993   -1.8094 C   0  0  0  0  0  0  0  0  0  0  0  0
   -1.9970   -2.4174   -1.2276 C   0  0  0  0  0  0  0  0  0  0  0  0
   -1.4664   -1.3783   -1.9487 C   0  0  0  0  0  0  0  0  0  0  0  0
   -1.7038    0.0653   -1.6512 C   0  0  0  0  0  0  0  0  0  0  0  0
   -1.5619    0.8338   -2.6032 O   0  0  0  0  0  0  0  0  0  0  0  0
   -2.1970    0.5695   -0.3688 C   0  0  0  0  0  0  0  0  0  0  0  0
   -2.7821   -0.1554    0.6618 C   0  0  0  0  0  0  0  0  0  0  0  0
   -3.3081    0.7429    1.5611 N   0  0  0  0  0  0  0  0  0  0  0  0
   -4.2846    0.4508    2.5889 C   0  0  0  0  0  0  0  0  0  0  0  0
   -2.8569    2.0170    1.2824 C   0  0  0  0  0  0  0  0  0  0  0  0
   -3.0219    3.2348    1.9715 C   0  0  0  0  0  0  0  0  0  0  0  0
   -2.4398    4.3859    1.4299 C   0  0  0  0  0  0  0  0  0  0  0  0
   -1.7454    4.3333    0.2285 C   0  0  0  0  0  0  0  0  0  0  0  0
   -1.6166    3.1254   -0.4642 C   0  0  0  0  0  0  0  0  0  0  0  0
   -2.1700    1.9401    0.0689 C   0  0  0  0  0  0  0  0  0  0  0  0
   -2.8797   -1.6418    0.8036 C   0  0  0  0  0  0  0  0  0  0  0  0
   -1.7550   -2.3901    0.1870 N   0  0  0  0  0  0  0  0  0  0  0  0
   -0.4403   -2.0617    0.7088 C   0  0  0  0  0  0  0  0  0  0  0  0
   -0.3025   -2.1750    2.1130 C   0  0  0  0  0  0  0  0  0  0  0  0
    0.8926   -1.8924    2.7756 C   0  0  0  0  0  0  0  0  0  0  0  0
    0.9861   -1.8956    4.1768 C   0  0  0  0  0  0  0  0  0  0  0  0
    2.1902   -1.5815    4.8035 C   0  0  0  0  0  0  0  0  0  0  0  0
    3.3071   -1.2864    4.0312 C   0  0  0  0  0  0  0  0  0  0  0  0
    3.2059   -1.2976    2.6373 C   0  0  0  0  0  0  0  0  0  0  0  0
    2.0057   -1.5814    1.9949 C   0  0  0  0  0  0  0  0  0  0  0  0
    1.9349   -1.5400    0.6586 N   0  0  0  0  0  0  0  0  0  0  0  0
    0.7529   -1.7043   -0.0196 C   0  0  0  0  0  0  0  0  0  0  0  0
    3.0148    0.0818   -1.4742 C   0  0  0  0  0  0  0  0  0  0  0  0
    3.7063    1.2513   -1.8059 C   0  0  0  0  0  0  0  0  0  0  0  0
    4.9007    1.4459   -1.1725 O   0  0  0  0  0  0  0  0  0  0  0  0
    3.2339    4.0751   -3.7153 H   0  0  0  0  0  0  0  0  0  0  0  0
    4.7886    3.2260   -3.6464 H   0  0  0  0  0  0  0  0  0  0  0  0
    4.1109    4.0134   -2.1957 H   0  0  0  0  0  0  0  0  0  0  0  0
    1.5681    2.4609   -4.1343 H   0  0  0  0  0  0  0  0  0  0  0  0
    0.4209    0.4137   -3.6147 H   0  0  0  0  0  0  0  0  0  0  0  0
    1.6902   -2.2982   -1.8236 H   0  0  0  0  0  0  0  0  0  0  0  0
    0.6612   -3.3247   -3.7197 H   0  0  0  0  0  0  0  0  0  0  0  0
   -1.1378   -4.9710   -3.3010 H   0  0  0  0  0  0  0  0  0  0  0  0
   -2.5135   -4.5268   -1.2896 H   0  0  0  0  0  0  0  0  0  0  0  0
   -5.2535    0.8064    2.2270 H   0  0  0  0  0  0  0  0  0  0  0  0
   -4.0083    0.9607    3.5131 H   0  0  0  0  0  0  0  0  0  0  0  0
   -4.3461   -0.6210    2.7682 H   0  0  0  0  0  0  0  0  0  0  0  0
   -3.5746    3.2969    2.9041 H   0  0  0  0  0  0  0  0  0  0  0  0
   -2.5409    5.3362    1.9492 H   0  0  0  0  0  0  0  0  0  0  0  0
   -1.2998    5.2360   -0.1833 H   0  0  0  0  0  0  0  0  0  0  0  0
   -1.0742    3.1000   -1.4074 H   0  0  0  0  0  0  0  0  0  0  0  0
   -3.8331   -1.9652    0.3631 H   0  0  0  0  0  0  0  0  0  0  0  0
   -2.9594   -1.9298    1.8564 H   0  0  0  0  0  0  0  0  0  0  0  0
   -1.1462   -2.5025    2.7119 H   0  0  0  0  0  0  0  0  0  0  0  0
    0.1178   -2.1242    4.7903 H   0  0  0  0  0  0  0  0  0  0  0  0
    2.2552   -1.5590    5.8879 H   0  0  0  0  0  0  0  0  0  0  0  0
    4.2532   -1.0390    4.5054 H   0  0  0  0  0  0  0  0  0  0  0  0
    4.0817   -1.0567    2.0386 H   0  0  0  0  0  0  0  0  0  0  0  0
    3.4877   -0.5955   -0.7687 H   0  0  0  0  0  0  0  0  0  0  0  0
    5.2843    2.2819   -1.4780 H   0  0  0  0  0  0  0  0  0  0  0  0
  2  1  1  0  0  0  0
  3  2  2  0  0  0  0
  4  3  1  0  0  0  0
  5  4  2  0  0  0  0
  6  5  1  0  0  0  0
  7  6  1  0  0  0  0
  8  7  2  0  0  0  0
  9  8  1  0  0  0  0
 10  9  2  0  0  0  0
 11 10  1  0  0  0  0
 12 11  2  0  0  0  0
 12  7  1  0  0  0  0
 13 12  1  0  0  0  0
 14 13  2  0  0  0  0
 15 13  1  0  0  0  0
 16 15  2  0  0  0  0
 17 16  1  0  0  0  0
 18 17  1  0  0  0  0
 19 17  1  0  0  0  0
 20 19  1  0  0  0  0
 21 20  2  0  0  0  0
 22 21  1  0  0  0  0
 23 22  2  0  0  0  0
 24 23  1  0  0  0  0
 24 15  1  0  0  0  0
 24 19  2  0  0  0  0
 25 16  1  0  0  0  0
 26 25  1  0  0  0  0
 26 11  1  0  0  0  0
 27 26  1  0  0  0  0
 28 27  2  0  0  0  0
 29 28  1  0  0  0  0
 30 29  2  0  0  0  0
 31 30  1  0  0  0  0
 32 31  2  0  0  0  0
 33 32  1  0  0  0  0
 34 33  2  0  0  0  0
 34 29  1  0  0  0  0
 35 34  1  0  0  0  0
 36 35  2  0  0  0  0
 36 27  1  0  0  0  0
 36  6  1  0  0  0  0
 37  5  1  0  0  0  0
 38 37  2  0  0  0  0
 38  2  1  0  0  0  0
 39 38  1  0  0  0  0
  1 40  1  0  0  0  0
  1 41  1  0  0  0  0
  1 42  1  0  0  0  0
  3 43  1  0  0  0  0
  4 44  1  0  0  0  0
  6 45  1  0  0  0  0
  8 46  1  0  0  0  0
  9 47  1  0  0  0  0
 10 48  1  0  0  0  0
 18 49  1  0  0  0  0
 18 50  1  0  0  0  0
 18 51  1  0  0  0  0
 20 52  1  0  0  0  0
 21 53  1  0  0  0  0
 22 54  1  0  0  0  0
 23 55  1  0  0  0  0
 25 56  1  0  0  0  0
 25 57  1  0  0  0  0
 28 58  1  0  0  0  0
 30 59  1  0  0  0  0
 31 60  1  0  0  0  0
 32 61  1  0  0  0  0
 33 62  1  0  0  0  0
 37 63  1  0  0  0  0
 39 64  1  0  0  0  0
M  END
>  <energy>
283.97209660419605

$$$$
