COc1cccc2c1c1n(C(=O)N(C)C)c(=O)c3c4ccccc5c6c7cccnc7c7c(c3c2c(c4c67)C1)N5
                    3D

 62 70  0  0  0  0  0  0  0  0999 V2000
   -4.8986   -2.7638    2.2319 C   0  0  0  0  0  0  0  0  0  0  0  0
   -3.8262   -1.9689    2.7154 O   0  0  0  0  0  0  0  0  0  0  0  0
   -2.5605   -2.4281    2.4236 C   0  0  0  0  0  0  0  0  0  0  0  0
   -2.0247   -3.5779    2.8883 C   0  0  0  0  0  0  0  0  0  0  0  0
   -0.5861   -3.8264    2.8176 C   0  0  0  0  0  0  0  0  0  0  0  0
    0.2864   -2.8995    2.3794 C   0  0  0  0  0  0  0  0  0  0  0  0
   -0.2088   -1.5848    1.9596 C   0  0  0  0  0  0  0  0  0  0  0  0
   -1.6783   -1.4156    1.8492 C   0  0  0  0  0  0  0  0  0  0  0  0
   -2.0880   -0.5761    0.8578 C   0  0  0  0  0  0  0  0  0  0  0  0
   -1.9723   -1.0210   -0.5083 N   0  0  0  0  0  0  0  0  0  0  0  0
   -2.6248   -0.4054   -1.5733 C   0  0  0  0  0  0  0  0  0  0  0  0
   -2.3865   -0.6972   -2.7508 O   0  0  0  0  0  0  0  0  0  0  0  0
   -3.5267    0.6234   -1.3062 N   0  0  0  0  0  0  0  0  0  0  0  0
   -3.7315    1.5971   -2.3702 C   0  0  0  0  0  0  0  0  0  0  0  0
   -4.5532    0.5872   -0.2782 C   0  0  0  0  0  0  0  0  0  0  0  0
   -0.8239   -1.7580   -0.9125 C   0  0  0  0  0  0  0  0  0  0  0  0
   -0.8553   -2.9653   -1.1880 O   0  0  0  0  0  0  0  0  0  0  0  0
    0.5556   -1.0077   -0.9740 C   0  0  0  0  0  0  0  0  0  0  0  0
    0.4102    0.4571   -1.3191 C   0  0  0  0  0  0  0  0  0  0  0  0
    0.4393    0.9719   -2.5673 C   0  0  0  0  0  0  0  0  0  0  0  0
    1.0648    0.2787   -3.6970 C   0  0  0  0  0  0  0  0  0  0  0  0
    2.3942    0.4112   -3.9279 C   0  0  0  0  0  0  0  0  0  0  0  0
    3.1892    1.2928   -3.0621 C   0  0  0  0  0  0  0  0  0  0  0  0
    3.3403    1.0008   -1.7530 C   0  0  0  0  0  0  0  0  0  0  0  0
    3.0681    2.1114   -0.7209 C   0  0  0  0  0  0  0  0  0  0  0  0
    4.1969    2.3404    0.2223 C   0  0  0  0  0  0  0  0  0  0  0  0
    5.0562    3.4111    0.3639 C   0  0  0  0  0  0  0  0  0  0  0  0
    5.8853    3.4069    1.4839 C   0  0  0  0  0  0  0  0  0  0  0  0
    5.8010    2.3399    2.3920 C   0  0  0  0  0  0  0  0  0  0  0  0
    4.9571    1.2849    2.2769 N   0  0  0  0  0  0  0  0  0  0  0  0
    4.1889    1.3276    1.1798 C   0  0  0  0  0  0  0  0  0  0  0  0
    2.9175    0.5984    0.9581 C   0  0  0  0  0  0  0  0  0  0  0  0
    2.8030   -0.5058    0.1185 C   0  0  0  0  0  0  0  0  0  0  0  0
    1.3894   -1.1642    0.1421 C   0  0  0  0  0  0  0  0  0  0  0  0
    0.5395   -0.6539    1.3154 C   0  0  0  0  0  0  0  0  0  0  0  0
    0.0006    0.7789    0.9795 C   0  0  0  0  0  0  0  0  0  0  0  0
    0.6236    1.3742   -0.1041 C   0  0  0  0  0  0  0  0  0  0  0  0
    2.0964    1.6992    0.1857 C   0  0  0  0  0  0  0  0  0  0  0  0
   -1.5027    0.8136    1.0847 C   0  0  0  0  0  0  0  0  0  0  0  0
    3.3432   -0.3172   -1.1969 N   0  0  0  0  0  0  0  0  0  0  0  0
   -4.8419   -3.8037    2.5718 H   0  0  0  0  0  0  0  0  0  0  0  0
   -5.8197   -2.3181    2.6259 H   0  0  0  0  0  0  0  0  0  0  0  0
   -4.9433   -2.7085    1.1385 H   0  0  0  0  0  0  0  0  0  0  0  0
   -2.6256   -4.3154    3.4055 H   0  0  0  0  0  0  0  0  0  0  0  0
   -0.2262   -4.7915    3.1721 H   0  0  0  0  0  0  0  0  0  0  0  0
    1.3542   -3.1053    2.3671 H   0  0  0  0  0  0  0  0  0  0  0  0
   -4.5925    1.2933   -2.9677 H   0  0  0  0  0  0  0  0  0  0  0  0
   -3.9057    2.5795   -1.9272 H   0  0  0  0  0  0  0  0  0  0  0  0
   -2.8483    1.6642   -3.0116 H   0  0  0  0  0  0  0  0  0  0  0  0
   -4.5418   -0.3417    0.2971 H   0  0  0  0  0  0  0  0  0  0  0  0
   -5.5312    0.6762   -0.7623 H   0  0  0  0  0  0  0  0  0  0  0  0
   -4.4211    1.4496    0.3826 H   0  0  0  0  0  0  0  0  0  0  0  0
    0.3545    2.0539   -2.6941 H   0  0  0  0  0  0  0  0  0  0  0  0
    0.4050   -0.3025   -4.3430 H   0  0  0  0  0  0  0  0  0  0  0  0
    2.8878   -0.0833   -4.7648 H   0  0  0  0  0  0  0  0  0  0  0  0
    3.2407    2.3262   -3.3949 H   0  0  0  0  0  0  0  0  0  0  0  0
    5.0332    4.2460   -0.3235 H   0  0  0  0  0  0  0  0  0  0  0  0
    6.5583    4.2406    1.6799 H   0  0  0  0  0  0  0  0  0  0  0  0
    6.4088    2.3404    3.2923 H   0  0  0  0  0  0  0  0  0  0  0  0
   -1.7420    1.1683    2.0937 H   0  0  0  0  0  0  0  0  0  0  0  0
   -1.9152    1.5664    0.4091 H   0  0  0  0  0  0  0  0  0  0  0  0
    3.0135   -1.0048   -1.8622 H   0  0  0  0  0  0  0  0  0  0  0  0
  2  1  1  0  0  0  0
  3  2  1  0  0  0  0
  4  3  2  0  0  0  0
  5  4  1  0  0  0  0
  6  5  2  0  0  0  0
  7  6  1  0  0  0  0
  8  7  1  0  0  0  0
  8  3  1  0  0  0  0
  9  8  2  0  0  0  0
 10  9  1  0  0  0  0
 11 10  1  0  0  0  0
 12 11  2  0  0  0  0
 13 11  1  0  0  0  0
 14 13  1  0  0  0  0
 15 13  1  0  0  0  0
 16 10  1  0  0  0  0
 17 16  2  0  0  0  0
 18 16  1  0  0  0  0
 19 18  1  0  0  0  0
 20 19  2  0  0  0  0
 21 20  1  0  0  0  0
 22 21  2  0  0  0  0
 23 22  1  0  0  0  0
 24 23  2  0  0  0  0
 25 24  1  0  0  0  0
 26 25  1  0  0  0  0
 27 26  2  0  0  0  0
 28 27  1  0  0  0  0
 29 28  2  0  0  0  0
 30 29  1  0  0  0  0
 31 30  2  0  0  0  0
 31 26  1  0  0  0  0
 32 31  1  0  0  0  0
 33 32  2  0  0  0  0
 34 33  1  0  0  0  0
 34 18  2  0  0  0  0
 35 34  1  0  0  0  0
 35  7  2  0  0  0  0
 36 35  1  0  0  0  0
 37 36  2  0  0  0  0
 37 19  1  0  0  0  0
 38 37  1  0  0  0  0
 38 25  2  0  0  0  0
 38 32  1  0  0  0  0
 39 36  1  0  0  0  0
 39  9  1  0  0  0  0
 40 33  1  0  0  0  0
 40 24  1  0  0  0  0
  1 41  1  0  0  0  0
  1 42  1  0  0  0  0
  1 43  1  0  0  0  0
  4 44  1  0  0  0  0
  5 45  1  0  0  0  0
  6 46  1  0  0  0  0
 14 47  1  0  0  0  0
 14 48  1  0  0  0  0
 14 49  1  0  0  0  0
 15 50  1  0  0  0  0
 15 51  1  0  0  0  0
 15 52  1  0  0  0  0
 20 53  1  0  0  0  0
 21 54  1  0  0  0  0
 22 55  1  0  0  0  0
 23 56  1  0  0  0  0
 27 57  1  0  0  0  0
 28 58  1  0  0  0  0
 29 59  1  0  0  0  0
 39 60  1  0  0  0  0
 39 61  1  0  0  0  0
 40 62  1  0  0  0  0
M  END
>  <energy>
542.35210657493019

$$$$
