CC1(C)C2CCC3C4=NC1(C1CCCN1)OC4C3C2
                    3D

 43 47  0  0  0  0  0  0  0  0999 V2000
    0.8533   -1.7936    0.8675 C   0  0  0  0  0  0  0  0  0  0  0  0
    0.7052   -0.7521   -0.2653 C   0  0  0  0  0  0  0  0  0  0  0  0
    0.5580   -1.5729   -1.5776 C   0  0  0  0  0  0  0  0  0  0  0  0
    2.1080    0.0643   -0.3854 C   0  0  0  0  0  0  0  0  0  0  0  0
    2.6736    0.6348    0.9542 C   0  0  0  0  0  0  0  0  0  0  0  0
    2.6843    2.1648    1.1040 C   0  0  0  0  0  0  0  0  0  0  0  0
    1.5083    2.8231    0.4092 C   0  0  0  0  0  0  0  0  0  0  0  0
    0.1763    2.1220    0.4692 C   0  0  0  0  0  0  0  0  0  0  0  0
   -0.2421    1.1009    1.1419 N   0  0  0  0  0  0  0  0  0  0  0  0
   -0.5689    0.1998   -0.0484 C   0  0  0  0  0  0  0  0  0  0  0  0
   -2.0047   -0.3809    0.1864 C   0  0  0  0  0  0  0  0  0  0  0  0
   -2.2961   -1.1384    1.4730 C   0  0  0  0  0  0  0  0  0  0  0  0
   -3.6354   -1.8133    1.1932 C   0  0  0  0  0  0  0  0  0  0  0  0
   -3.7644   -1.8478   -0.3245 C   0  0  0  0  0  0  0  0  0  0  0  0
   -2.5078   -1.3124   -0.8404 N   0  0  0  0  0  0  0  0  0  0  0  0
   -0.6822    0.9807   -1.2961 O   0  0  0  0  0  0  0  0  0  0  0  0
   -0.0992    2.2521   -1.0047 C   0  0  0  0  0  0  0  0  0  0  0  0
    1.4448    2.4300   -1.1337 C   0  0  0  0  0  0  0  0  0  0  0  0
    2.1898    1.1400   -1.4996 C   0  0  0  0  0  0  0  0  0  0  0  0
    0.6926   -1.3564    1.8576 H   0  0  0  0  0  0  0  0  0  0  0  0
    0.1461   -2.6215    0.7456 H   0  0  0  0  0  0  0  0  0  0  0  0
    1.8538   -2.2448    0.8634 H   0  0  0  0  0  0  0  0  0  0  0  0
    1.4612   -2.1638   -1.7730 H   0  0  0  0  0  0  0  0  0  0  0  0
    0.3850   -0.9433   -2.4540 H   0  0  0  0  0  0  0  0  0  0  0  0
   -0.2667   -2.2887   -1.5200 H   0  0  0  0  0  0  0  0  0  0  0  0
    2.8383   -0.7057   -0.6856 H   0  0  0  0  0  0  0  0  0  0  0  0
    3.7114    0.2917    1.0626 H   0  0  0  0  0  0  0  0  0  0  0  0
    2.1583    0.2085    1.8185 H   0  0  0  0  0  0  0  0  0  0  0  0
    2.6915    2.4240    2.1698 H   0  0  0  0  0  0  0  0  0  0  0  0
    3.6178    2.5643    0.6877 H   0  0  0  0  0  0  0  0  0  0  0  0
    1.4254    3.9002    0.5961 H   0  0  0  0  0  0  0  0  0  0  0  0
   -2.6794    0.4918    0.1710 H   0  0  0  0  0  0  0  0  0  0  0  0
   -1.5662   -1.9180    1.6899 H   0  0  0  0  0  0  0  0  0  0  0  0
   -2.3536   -0.4811    2.3459 H   0  0  0  0  0  0  0  0  0  0  0  0
   -4.4547   -1.2302    1.6277 H   0  0  0  0  0  0  0  0  0  0  0  0
   -3.6658   -2.8184    1.6260 H   0  0  0  0  0  0  0  0  0  0  0  0
   -4.6100   -1.2315   -0.6498 H   0  0  0  0  0  0  0  0  0  0  0  0
   -3.9233   -2.8660   -0.6926 H   0  0  0  0  0  0  0  0  0  0  0  0
   -2.6420   -0.8095   -1.7170 H   0  0  0  0  0  0  0  0  0  0  0  0
   -0.7279    3.1035   -1.2719 H   0  0  0  0  0  0  0  0  0  0  0  0
    1.7252    3.2502   -1.8061 H   0  0  0  0  0  0  0  0  0  0  0  0
    1.8335    0.7556   -2.4611 H   0  0  0  0  0  0  0  0  0  0  0  0
    3.2486    1.3876   -1.6535 H   0  0  0  0  0  0  0  0  0  0  0  0
  2  1  1  0  0  0  0
  3  2  1  0  0  0  0
  4  2  1  0  0  0  0
  5  4  1  0  0  0  0
  6  5  1  0  0  0  0
  7  6  1  0  0  0  0
  8  7  1  0  0  0  0
  9  8  2  0  0  0  0
 10  9  1  0  0  0  0
 10  2  1  0  0  0  0
 11 10  1  0  0  0  0
 12 11  1  0  0  0  0
 13 12  1  0  0  0  0
 14 13  1  0  0  0  0
 15 14  1  0  0  0  0
 15 11  1  0  0  0  0
 16 10  1  0  0  0  0
 17 16  1  0  0  0  0
 17  8  1  0  0  0  0
 18 17  1  0  0  0  0
 18  7  1  0  0  0  0
 19 18  1  0  0  0  0
 19  4  1  0  0  0  0
  1 20  1  0  0  0  0
  1 21  1  0  0  0  0
  1 22  1  0  0  0  0
  3 23  1  0  0  0  0
  3 24  1  0  0  0  0
  3 25  1  0  0  0  0
  4 26  1  0  0  0  0
  5 27  1  0  0  0  0
  5 28  1  0  0  0  0
  6 29  1  0  0  0  0
  6 30  1  0  0  0  0
  7 31  1  0  0  0  0
 11 32  1  0  0  0  0
 12 33  1  0  0  0  0
 12 34  1  0  0  0  0
 13 35  1  0  0  0  0
 13 36  1  0  0  0  0
 14 37  1  0  0  0  0
 14 38  1  0  0  0  0
 15 39  1  0  0  0  0
 17 40  1  0  0  0  0
 18 41  1  0  0  0  0
 19 42  1  0  0  0  0
 19 43  1  0  0  0  0
M  END
>  <energy>
136.69425620698735

$$$$
