C[N+]12CCC3(C1)C1C=C(CO)C(C=CC[N+]45CCC(CC4)C(O)C(O)C5O)C1C3C2
                    3D

 68 73  0  0  0  0  0  0  0  0999 V2000
    5.4703    1.4834   -3.3504 C   0  0  0  0  0  0  0  0  0  0  0  0
    4.9934    1.0976   -1.9766 N   0  3  0  0  0  0  0  0  0  0  0  0
    6.1604    0.5973   -1.0691 C   0  0  0  0  0  0  0  0  0  0  0  0
    5.5878    0.7921    0.3541 C   0  0  0  0  0  0  0  0  0  0  0  0
    4.1823    1.2966    0.0356 C   0  0  0  0  0  0  0  0  0  0  0  0
    4.3956    2.2194   -1.1583 C   0  0  0  0  0  0  0  0  0  0  0  0
    3.0284    1.6241    0.9960 C   0  0  0  0  0  0  0  0  0  0  0  0
    2.9693    0.9259    2.3013 C   0  0  0  0  0  0  0  0  0  0  0  0
    1.8933    0.1194    2.3453 C   0  0  0  0  0  0  0  0  0  0  0  0
    1.4551   -0.6938    3.5216 C   0  0  0  0  0  0  0  0  0  0  0  0
    0.0831   -0.4219    3.7771 O   0  0  0  0  0  0  0  0  0  0  0  0
    1.1013    0.1403    1.0536 C   0  0  0  0  0  0  0  0  0  0  0  0
    0.6851   -1.2187    0.5686 C   0  0  0  0  0  0  0  0  0  0  0  0
   -0.4038   -1.5519   -0.1512 C   0  0  0  0  0  0  0  0  0  0  0  0
   -1.3850   -0.6490   -0.8490 C   0  0  0  0  0  0  0  0  0  0  0  0
   -2.9325   -0.7153   -0.5094 N   0  3  0  0  0  0  0  0  0  0  0  0
   -3.2835   -1.9662    0.2948 C   0  0  0  0  0  0  0  0  0  0  0  0
   -4.7300   -2.4066    0.0521 C   0  0  0  0  0  0  0  0  0  0  0  0
   -5.6640   -1.2869   -0.4102 C   0  0  0  0  0  0  0  0  0  0  0  0
   -5.1569   -0.6785   -1.7196 C   0  0  0  0  0  0  0  0  0  0  0  0
   -3.6488   -0.7701   -1.8729 C   0  0  0  0  0  0  0  0  0  0  0  0
   -5.8704   -0.2470    0.6987 C   0  0  0  0  0  0  0  0  0  0  0  0
   -6.9372    0.6448    0.3391 O   0  0  0  0  0  0  0  0  0  0  0  0
   -4.6107    0.5099    1.1687 C   0  0  0  0  0  0  0  0  0  0  0  0
   -4.1633   -0.0433    2.4282 O   0  0  0  0  0  0  0  0  0  0  0  0
   -3.3528    0.5807    0.2276 C   0  0  0  0  0  0  0  0  0  0  0  0
   -2.2821    1.1310    0.9786 O   0  0  0  0  0  0  0  0  0  0  0  0
    2.0634    0.8212    0.0488 C   0  0  0  0  0  0  0  0  0  0  0  0
    3.3567    0.0970   -0.5190 C   0  0  0  0  0  0  0  0  0  0  0  0
    3.8414    0.0708   -1.9672 C   0  0  0  0  0  0  0  0  0  0  0  0
    4.6106    1.8474   -3.9183 H   0  0  0  0  0  0  0  0  0  0  0  0
    5.8967    0.5968   -3.8270 H   0  0  0  0  0  0  0  0  0  0  0  0
    6.2202    2.2738   -3.2513 H   0  0  0  0  0  0  0  0  0  0  0  0
    7.0331    1.2362   -1.2458 H   0  0  0  0  0  0  0  0  0  0  0  0
    6.3740   -0.4457   -1.3196 H   0  0  0  0  0  0  0  0  0  0  0  0
    6.1654    1.5445    0.9031 H   0  0  0  0  0  0  0  0  0  0  0  0
    5.5991   -0.1370    0.9304 H   0  0  0  0  0  0  0  0  0  0  0  0
    3.4966    2.5909   -1.6551 H   0  0  0  0  0  0  0  0  0  0  0  0
    5.1386    3.0079   -1.0101 H   0  0  0  0  0  0  0  0  0  0  0  0
    2.7960    2.6875    1.0960 H   0  0  0  0  0  0  0  0  0  0  0  0
    3.6684    1.0753    3.1113 H   0  0  0  0  0  0  0  0  0  0  0  0
    2.0341   -0.4507    4.4163 H   0  0  0  0  0  0  0  0  0  0  0  0
    1.5695   -1.7606    3.3205 H   0  0  0  0  0  0  0  0  0  0  0  0
   -0.0781   -0.6861    4.7012 H   0  0  0  0  0  0  0  0  0  0  0  0
    0.2248    0.7757    1.2072 H   0  0  0  0  0  0  0  0  0  0  0  0
    1.3108   -2.0451    0.9101 H   0  0  0  0  0  0  0  0  0  0  0  0
   -0.5103   -2.6174   -0.3696 H   0  0  0  0  0  0  0  0  0  0  0  0
   -1.0764    0.3997   -0.8265 H   0  0  0  0  0  0  0  0  0  0  0  0
   -1.3035   -0.9327   -1.9109 H   0  0  0  0  0  0  0  0  0  0  0  0
   -3.0584   -1.7776    1.3456 H   0  0  0  0  0  0  0  0  0  0  0  0
   -2.6403   -2.7891   -0.0315 H   0  0  0  0  0  0  0  0  0  0  0  0
   -4.7245   -3.1844   -0.7253 H   0  0  0  0  0  0  0  0  0  0  0  0
   -5.1242   -2.8961    0.9486 H   0  0  0  0  0  0  0  0  0  0  0  0
   -6.6496   -1.7196   -0.6278 H   0  0  0  0  0  0  0  0  0  0  0  0
   -5.4793    0.3613   -1.8334 H   0  0  0  0  0  0  0  0  0  0  0  0
   -5.6074   -1.2085   -2.5683 H   0  0  0  0  0  0  0  0  0  0  0  0
   -3.3599   -1.7176   -2.3481 H   0  0  0  0  0  0  0  0  0  0  0  0
   -3.2702    0.0543   -2.4913 H   0  0  0  0  0  0  0  0  0  0  0  0
   -6.2737   -0.7888    1.5637 H   0  0  0  0  0  0  0  0  0  0  0  0
   -6.6146    1.2954   -0.3099 H   0  0  0  0  0  0  0  0  0  0  0  0
   -4.8774    1.5452    1.4118 H   0  0  0  0  0  0  0  0  0  0  0  0
   -4.8197    0.2034    3.1098 H   0  0  0  0  0  0  0  0  0  0  0  0
   -3.5575    1.3080   -0.5667 H   0  0  0  0  0  0  0  0  0  0  0  0
   -2.3841    0.7653    1.8893 H   0  0  0  0  0  0  0  0  0  0  0  0
    1.5435    1.4298   -0.6987 H   0  0  0  0  0  0  0  0  0  0  0  0
    3.5567   -0.8611   -0.0186 H   0  0  0  0  0  0  0  0  0  0  0  0
    4.2489   -0.8970   -2.2752 H   0  0  0  0  0  0  0  0  0  0  0  0
    3.0764    0.4147   -2.6725 H   0  0  0  0  0  0  0  0  0  0  0  0
  2  1  1  0  0  0  0
  3  2  1  0  0  0  0
  4  3  1  0  0  0  0
  5  4  1  0  0  0  0
  6  5  1  0  0  0  0
  6  2  1  0  0  0  0
  7  5  1  0  0  0  0
  8  7  1  0  0  0  0
  9  8  2  0  0  0  0
 10  9  1  0  0  0  0
 11 10  1  0  0  0  0
 12  9  1  0  0  0  0
 13 12  1  0  0  0  0
 14 13  2  0  0  0  0
 15 14  1  0  0  0  0
 16 15  1  0  0  0  0
 17 16  1  0  0  0  0
 18 17  1  0  0  0  0
 19 18  1  0  0  0  0
 20 19  1  0  0  0  0
 21 20  1  0  0  0  0
 21 16  1  0  0  0  0
 22 19  1  0  0  0  0
 23 22  1  0  0  0  0
 24 22  1  0  0  0  0
 25 24  1  0  0  0  0
 26 24  1  0  0  0  0
 26 16  1  0  0  0  0
 27 26  1  0  0  0  0
 28 12  1  0  0  0  0
 28  7  1  0  0  0  0
 29 28  1  0  0  0  0
 29  5  1  0  0  0  0
 30 29  1  0  0  0  0
 30  2  1  0  0  0  0
  1 31  1  0  0  0  0
  1 32  1  0  0  0  0
  1 33  1  0  0  0  0
  3 34  1  0  0  0  0
  3 35  1  0  0  0  0
  4 36  1  0  0  0  0
  4 37  1  0  0  0  0
  6 38  1  0  0  0  0
  6 39  1  0  0  0  0
  7 40  1  0  0  0  0
  8 41  1  0  0  0  0
 10 42  1  0  0  0  0
 10 43  1  0  0  0  0
 11 44  1  0  0  0  0
 12 45  1  0  0  0  0
 13 46  1  0  0  0  0
 14 47  1  0  0  0  0
 15 48  1  0  0  0  0
 15 49  1  0  0  0  0
 17 50  1  0  0  0  0
 17 51  1  0  0  0  0
 18 52  1  0  0  0  0
 18 53  1  0  0  0  0
 19 54  1  0  0  0  0
 20 55  1  0  0  0  0
 20 56  1  0  0  0  0
 21 57  1  0  0  0  0
 21 58  1  0  0  0  0
 22 59  1  0  0  0  0
 23 60  1  0  0  0  0
 24 61  1  0  0  0  0
 25 62  1  0  0  0  0
 26 63  1  0  0  0  0
 27 64  1  0  0  0  0
 28 65  1  0  0  0  0
 29 66  1  0  0  0  0
 30 67  1  0  0  0  0
 30 68  1  0  0  0  0
M  CHG  2   2   1  16   1
M  END
>  <energy>
145.49926855024043

$$$$
