NC(=O)C12CC3CC(C1)C(NC(=O)NC14CCC1C(N1C(=O)CNC1=O)C4)C(C3)C2
                    3D

 59 64  0  0  0  0  0  0  0  0999 V2000
    5.4523    1.8115   -1.0373 N   0  0  0  0  0  0  0  0  0  0  0  0
    5.3083    1.0994    0.1259 C   0  0  0  0  0  0  0  0  0  0  0  0
    6.1425    1.2288    1.0203 O   0  0  0  0  0  0  0  0  0  0  0  0
    4.0792    0.1842    0.2676 C   0  0  0  0  0  0  0  0  0  0  0  0
    4.1568   -0.6034    1.6115 C   0  0  0  0  0  0  0  0  0  0  0  0
    2.9164   -1.4868    1.8073 C   0  0  0  0  0  0  0  0  0  0  0  0
    1.6757   -0.5856    1.7990 C   0  0  0  0  0  0  0  0  0  0  0  0
    1.5596    0.1566    0.4597 C   0  0  0  0  0  0  0  0  0  0  0  0
    2.7925    1.0360    0.2462 C   0  0  0  0  0  0  0  0  0  0  0  0
    1.4623   -0.8423   -0.7117 C   0  0  0  0  0  0  0  0  0  0  0  0
    0.1942   -1.5706   -0.6699 N   0  0  0  0  0  0  0  0  0  0  0  0
   -1.0177   -0.9010   -0.6951 C   0  0  0  0  0  0  0  0  0  0  0  0
   -1.1536    0.2688   -1.0157 O   0  0  0  0  0  0  0  0  0  0  0  0
   -2.0367   -1.7067   -0.2445 N   0  0  0  0  0  0  0  0  0  0  0  0
   -3.4032   -1.2597    0.0387 C   0  0  0  0  0  0  0  0  0  0  0  0
   -4.4837   -2.3375   -0.0481 C   0  0  0  0  0  0  0  0  0  0  0  0
   -5.3601   -1.3911   -0.8794 C   0  0  0  0  0  0  0  0  0  0  0  0
   -4.1805   -0.4074   -0.9563 C   0  0  0  0  0  0  0  0  0  0  0  0
   -4.2956    0.7344    0.0964 C   0  0  0  0  0  0  0  0  0  0  0  0
   -3.5316    1.9500   -0.2357 N   0  0  0  0  0  0  0  0  0  0  0  0
   -3.5050    2.5602   -1.4657 C   0  0  0  0  0  0  0  0  0  0  0  0
   -4.1695    2.2757   -2.4558 O   0  0  0  0  0  0  0  0  0  0  0  0
   -2.4972    3.6981   -1.4218 C   0  0  0  0  0  0  0  0  0  0  0  0
   -2.2166    3.7424   -0.0211 N   0  0  0  0  0  0  0  0  0  0  0  0
   -2.8251    2.7083    0.6556 C   0  0  0  0  0  0  0  0  0  0  0  0
   -2.7411    2.5671    1.8653 O   0  0  0  0  0  0  0  0  0  0  0  0
   -3.6285   -0.2178    1.1327 C   0  0  0  0  0  0  0  0  0  0  0  0
    2.7170   -1.7595   -0.6868 C   0  0  0  0  0  0  0  0  0  0  0  0
    2.8219   -2.5026    0.6608 C   0  0  0  0  0  0  0  0  0  0  0  0
    3.9889   -0.8783   -0.8615 C   0  0  0  0  0  0  0  0  0  0  0  0
    4.6307    2.0922   -1.5587 H   0  0  0  0  0  0  0  0  0  0  0  0
    6.2324    2.4563   -1.0970 H   0  0  0  0  0  0  0  0  0  0  0  0
    4.2458    0.0785    2.4692 H   0  0  0  0  0  0  0  0  0  0  0  0
    5.0568   -1.2376    1.6131 H   0  0  0  0  0  0  0  0  0  0  0  0
    2.9879   -2.0177    2.7649 H   0  0  0  0  0  0  0  0  0  0  0  0
    0.7758   -1.1845    1.9891 H   0  0  0  0  0  0  0  0  0  0  0  0
    1.7487    0.1514    2.6082 H   0  0  0  0  0  0  0  0  0  0  0  0
    0.6835    0.8092    0.4886 H   0  0  0  0  0  0  0  0  0  0  0  0
    2.6910    1.5494   -0.7188 H   0  0  0  0  0  0  0  0  0  0  0  0
    2.8148    1.8124    1.0227 H   0  0  0  0  0  0  0  0  0  0  0  0
    1.4595   -0.2937   -1.6616 H   0  0  0  0  0  0  0  0  0  0  0  0
    0.2038   -2.5434   -0.4095 H   0  0  0  0  0  0  0  0  0  0  0  0
   -1.7585   -2.6376    0.0147 H   0  0  0  0  0  0  0  0  0  0  0  0
   -4.9154   -2.6503    0.9082 H   0  0  0  0  0  0  0  0  0  0  0  0
   -4.1776   -3.2316   -0.6020 H   0  0  0  0  0  0  0  0  0  0  0  0
   -5.6717   -1.8047   -1.8467 H   0  0  0  0  0  0  0  0  0  0  0  0
   -6.2474   -1.0265   -0.3546 H   0  0  0  0  0  0  0  0  0  0  0  0
   -3.7413   -0.2366   -1.9363 H   0  0  0  0  0  0  0  0  0  0  0  0
   -5.3295    1.0016    0.3562 H   0  0  0  0  0  0  0  0  0  0  0  0
   -1.5915    3.4378   -1.9771 H   0  0  0  0  0  0  0  0  0  0  0  0
   -2.9342    4.6459   -1.7497 H   0  0  0  0  0  0  0  0  0  0  0  0
   -1.5816    4.3772    0.4482 H   0  0  0  0  0  0  0  0  0  0  0  0
   -4.3015   -0.5291    1.9431 H   0  0  0  0  0  0  0  0  0  0  0  0
   -2.7046    0.1287    1.6048 H   0  0  0  0  0  0  0  0  0  0  0  0
    2.6625   -2.4966   -1.4976 H   0  0  0  0  0  0  0  0  0  0  0  0
    1.9586   -3.1629    0.8148 H   0  0  0  0  0  0  0  0  0  0  0  0
    3.7090   -3.1531    0.6590 H   0  0  0  0  0  0  0  0  0  0  0  0
    3.9852   -0.3915   -1.8435 H   0  0  0  0  0  0  0  0  0  0  0  0
    4.8867   -1.5146   -0.8324 H   0  0  0  0  0  0  0  0  0  0  0  0
  2  1  1  0  0  0  0
  3  2  2  0  0  0  0
  4  2  1  0  0  0  0
  5  4  1  0  0  0  0
  6  5  1  0  0  0  0
  7  6  1  0  0  0  0
  8  7  1  0  0  0  0
  9  8  1  0  0  0  0
  9  4  1  0  0  0  0
 10  8  1  0  0  0  0
 11 10  1  0  0  0  0
 12 11  1  0  0  0  0
 13 12  2  0  0  0  0
 14 12  1  0  0  0  0
 15 14  1  0  0  0  0
 16 15  1  0  0  0  0
 17 16  1  0  0  0  0
 18 17  1  0  0  0  0
 18 15  1  0  0  0  0
 19 18  1  0  0  0  0
 20 19  1  0  0  0  0
 21 20  1  0  0  0  0
 22 21  2  0  0  0  0
 23 21  1  0  0  0  0
 24 23  1  0  0  0  0
 25 24  1  0  0  0  0
 25 20  1  0  0  0  0
 26 25  2  0  0  0  0
 27 19  1  0  0  0  0
 27 15  1  0  0  0  0
 28 10  1  0  0  0  0
 29 28  1  0  0  0  0
 29  6  1  0  0  0  0
 30 28  1  0  0  0  0
 30  4  1  0  0  0  0
  1 31  1  0  0  0  0
  1 32  1  0  0  0  0
  5 33  1  0  0  0  0
  5 34  1  0  0  0  0
  6 35  1  0  0  0  0
  7 36  1  0  0  0  0
  7 37  1  0  0  0  0
  8 38  1  0  0  0  0
  9 39  1  0  0  0  0
  9 40  1  0  0  0  0
 10 41  1  0  0  0  0
 11 42  1  0  0  0  0
 14 43  1  0  0  0  0
 16 44  1  0  0  0  0
 16 45  1  0  0  0  0
 17 46  1  0  0  0  0
 17 47  1  0  0  0  0
 18 48  1  0  0  0  0
 19 49  1  0  0  0  0
 23 50  1  0  0  0  0
 23 51  1  0  0  0  0
 24 52  1  0  0  0  0
 27 53  1  0  0  0  0
 27 54  1  0  0  0  0
 28 55  1  0  0  0  0
 29 56  1  0  0  0  0
 29 57  1  0  0  0  0
 30 58  1  0  0  0  0
 30 59  1  0  0  0  0
M  END
>  <energy>
-108.00680216955769

$$$$
