CC1(C)CCC(C)(C2C3CCC(O)C4(C)C(CCC(OC(=O)N5CC6CCCC65)C3)C4(C)CCC23CCOCCN3)C(O)C1
                    3D

106112  0  0  0  0  0  0  0  0999 V2000
    4.6216    0.8034   -2.0453 C   0  0  0  0  0  0  0  0  0  0  0  0
    4.7357    0.3144   -0.5845 C   0  0  0  0  0  0  0  0  0  0  0  0
    6.0509    0.8670   -0.0058 C   0  0  0  0  0  0  0  0  0  0  0  0
    4.8045   -1.2263   -0.5530 C   0  0  0  0  0  0  0  0  0  0  0  0
    3.4136   -1.8519   -0.6333 C   0  0  0  0  0  0  0  0  0  0  0  0
    2.5112   -1.5587    0.6295 C   0  0  0  0  0  0  0  0  0  0  0  0
    3.0059   -2.6074    1.6600 C   0  0  0  0  0  0  0  0  0  0  0  0
    0.9151   -1.7962    0.1901 C   0  0  0  0  0  0  0  0  0  0  0  0
    0.5248   -0.6916   -0.9436 C   0  0  0  0  0  0  0  0  0  0  0  0
    0.4399   -1.3130   -2.3866 C   0  0  0  0  0  0  0  0  0  0  0  0
   -0.8145   -2.0549   -2.8750 C   0  0  0  0  0  0  0  0  0  0  0  0
   -1.9715   -1.1213   -3.1496 C   0  0  0  0  0  0  0  0  0  0  0  0
   -2.0734   -0.9789   -4.5760 O   0  0  0  0  0  0  0  0  0  0  0  0
   -3.3200   -1.4737   -2.5429 C   0  0  0  0  0  0  0  0  0  0  0  0
   -4.2641   -2.0340   -3.6222 C   0  0  0  0  0  0  0  0  0  0  0  0
   -4.0271   -0.5233   -1.5847 C   0  0  0  0  0  0  0  0  0  0  0  0
   -3.5356    0.8348   -1.0361 C   0  0  0  0  0  0  0  0  0  0  0  0
   -2.4609    1.7268   -1.7067 C   0  0  0  0  0  0  0  0  0  0  0  0
   -0.9118    1.4874   -1.4620 C   0  0  0  0  0  0  0  0  0  0  0  0
   -0.2724    2.6110   -0.8026 O   0  0  0  0  0  0  0  0  0  0  0  0
   -0.3435    3.8382   -1.3630 C   0  0  0  0  0  0  0  0  0  0  0  0
   -0.9180    4.1087   -2.4118 O   0  0  0  0  0  0  0  0  0  0  0  0
    0.2628    4.7923   -0.5698 N   0  0  0  0  0  0  0  0  0  0  0  0
    1.2279    4.5517    0.4995 C   0  0  0  0  0  0  0  0  0  0  0  0
    0.5019    5.6015    1.3462 C   0  0  0  0  0  0  0  0  0  0  0  0
   -0.2634    5.1063    2.5698 C   0  0  0  0  0  0  0  0  0  0  0  0
   -1.4699    4.3828    1.9922 C   0  0  0  0  0  0  0  0  0  0  0  0
   -1.8459    5.2495    0.7971 C   0  0  0  0  0  0  0  0  0  0  0  0
   -0.5221    5.7554    0.2204 C   0  0  0  0  0  0  0  0  0  0  0  0
   -0.6064    0.2722   -0.5739 C   0  0  0  0  0  0  0  0  0  0  0  0
   -3.6010   -1.9390   -1.0369 C   0  0  0  0  0  0  0  0  0  0  0  0
   -4.6270   -3.0860   -0.9455 C   0  0  0  0  0  0  0  0  0  0  0  0
   -2.8231   -1.8817    0.2943 C   0  0  0  0  0  0  0  0  0  0  0  0
   -1.5739   -2.7598    0.4503 C   0  0  0  0  0  0  0  0  0  0  0  0
   -0.2974   -2.2213    1.2871 C   0  0  0  0  0  0  0  0  0  0  0  0
    0.0817   -3.4898    2.1383 C   0  0  0  0  0  0  0  0  0  0  0  0
   -0.9067   -3.8523    3.2593 C   0  0  0  0  0  0  0  0  0  0  0  0
   -0.5105   -3.2463    4.4894 O   0  0  0  0  0  0  0  0  0  0  0  0
   -0.7886   -1.8505    4.5640 C   0  0  0  0  0  0  0  0  0  0  0  0
   -0.0786   -1.0141    3.4864 C   0  0  0  0  0  0  0  0  0  0  0  0
   -0.7138   -1.1196    2.1678 N   0  0  0  0  0  0  0  0  0  0  0  0
    2.9116   -0.1486    1.2106 C   0  0  0  0  0  0  0  0  0  0  0  0
    1.8217    0.4884    1.8532 O   0  0  0  0  0  0  0  0  0  0  0  0
    3.5257    0.8530    0.2158 C   0  0  0  0  0  0  0  0  0  0  0  0
    4.6414    1.8961   -2.0959 H   0  0  0  0  0  0  0  0  0  0  0  0
    3.6885    0.4725   -2.5138 H   0  0  0  0  0  0  0  0  0  0  0  0
    5.4505    0.4282   -2.6560 H   0  0  0  0  0  0  0  0  0  0  0  0
    6.9128    0.4833   -0.5640 H   0  0  0  0  0  0  0  0  0  0  0  0
    6.1736    0.5787    1.0444 H   0  0  0  0  0  0  0  0  0  0  0  0
    6.0776    1.9606   -0.0609 H   0  0  0  0  0  0  0  0  0  0  0  0
    5.4173   -1.5953   -1.3859 H   0  0  0  0  0  0  0  0  0  0  0  0
    5.3166   -1.5690    0.3537 H   0  0  0  0  0  0  0  0  0  0  0  0
    2.9639   -1.4740   -1.5484 H   0  0  0  0  0  0  0  0  0  0  0  0
    3.5115   -2.9373   -0.7824 H   0  0  0  0  0  0  0  0  0  0  0  0
    2.6875   -3.6169    1.3887 H   0  0  0  0  0  0  0  0  0  0  0  0
    4.0993   -2.6612    1.7093 H   0  0  0  0  0  0  0  0  0  0  0  0
    2.6913   -2.3645    2.6762 H   0  0  0  0  0  0  0  0  0  0  0  0
    0.9987   -2.7361   -0.3780 H   0  0  0  0  0  0  0  0  0  0  0  0
    1.3820   -0.0290   -1.0325 H   0  0  0  0  0  0  0  0  0  0  0  0
    1.2687   -2.0183   -2.5124 H   0  0  0  0  0  0  0  0  0  0  0  0
    0.6516   -0.5091   -3.1063 H   0  0  0  0  0  0  0  0  0  0  0  0
   -0.5282   -2.5547   -3.8114 H   0  0  0  0  0  0  0  0  0  0  0  0
   -1.0850   -2.8726   -2.2311 H   0  0  0  0  0  0  0  0  0  0  0  0
   -1.7184   -0.1344   -2.8548 H   0  0  0  0  0  0  0  0  0  0  0  0
   -1.2338   -0.6052   -4.8896 H   0  0  0  0  0  0  0  0  0  0  0  0
   -4.3415   -1.3584   -4.4795 H   0  0  0  0  0  0  0  0  0  0  0  0
   -5.2914   -2.1504   -3.2643 H   0  0  0  0  0  0  0  0  0  0  0  0
   -3.9022   -3.0086   -3.9676 H   0  0  0  0  0  0  0  0  0  0  0  0
   -5.1049   -0.4242   -1.7321 H   0  0  0  0  0  0  0  0  0  0  0  0
   -3.3388    0.7987    0.0356 H   0  0  0  0  0  0  0  0  0  0  0  0
   -4.4454    1.4570   -1.0756 H   0  0  0  0  0  0  0  0  0  0  0  0
   -2.6925    2.7461   -1.3692 H   0  0  0  0  0  0  0  0  0  0  0  0
   -2.6399    1.7489   -2.7903 H   0  0  0  0  0  0  0  0  0  0  0  0
   -0.4085    1.3881   -2.4314 H   0  0  0  0  0  0  0  0  0  0  0  0
    2.2487    4.8422    0.2240 H   0  0  0  0  0  0  0  0  0  0  0  0
    1.2303    3.5420    0.9124 H   0  0  0  0  0  0  0  0  0  0  0  0
    1.1016    6.4930    1.5520 H   0  0  0  0  0  0  0  0  0  0  0  0
   -0.5910    5.9670    3.1652 H   0  0  0  0  0  0  0  0  0  0  0  0
    0.3389    4.4550    3.2145 H   0  0  0  0  0  0  0  0  0  0  0  0
   -2.2827    4.2756    2.7203 H   0  0  0  0  0  0  0  0  0  0  0  0
   -1.1760    3.3786    1.6639 H   0  0  0  0  0  0  0  0  0  0  0  0
   -2.4346    6.1094    1.1473 H   0  0  0  0  0  0  0  0  0  0  0  0
   -2.4628    4.7037    0.0786 H   0  0  0  0  0  0  0  0  0  0  0  0
   -0.5787    6.7380   -0.2559 H   0  0  0  0  0  0  0  0  0  0  0  0
   -0.4760    0.6286    0.4479 H   0  0  0  0  0  0  0  0  0  0  0  0
   -1.4639   -0.3453   -0.6348 H   0  0  0  0  0  0  0  0  0  0  0  0
   -4.3980   -3.7818   -0.1269 H   0  0  0  0  0  0  0  0  0  0  0  0
   -5.6332   -2.6866   -0.7794 H   0  0  0  0  0  0  0  0  0  0  0  0
   -4.6342   -3.7201   -1.8400 H   0  0  0  0  0  0  0  0  0  0  0  0
   -3.5271   -2.2192    1.0760 H   0  0  0  0  0  0  0  0  0  0  0  0
   -2.6731   -0.8707    0.6404 H   0  0  0  0  0  0  0  0  0  0  0  0
   -1.9597   -3.6774    0.9174 H   0  0  0  0  0  0  0  0  0  0  0  0
   -1.2199   -3.1510   -0.4904 H   0  0  0  0  0  0  0  0  0  0  0  0
    0.1807   -4.3471    1.4585 H   0  0  0  0  0  0  0  0  0  0  0  0
    1.0322   -3.3741    2.6406 H   0  0  0  0  0  0  0  0  0  0  0  0
   -0.8527   -4.9343    3.4283 H   0  0  0  0  0  0  0  0  0  0  0  0
   -1.9522   -3.6113    3.0439 H   0  0  0  0  0  0  0  0  0  0  0  0
   -1.8726   -1.6921    4.5484 H   0  0  0  0  0  0  0  0  0  0  0  0
   -0.4414   -1.5187    5.5495 H   0  0  0  0  0  0  0  0  0  0  0  0
   -0.1702    0.0353    3.7912 H   0  0  0  0  0  0  0  0  0  0  0  0
    0.9854   -1.2464    3.4547 H   0  0  0  0  0  0  0  0  0  0  0  0
   -1.7150   -1.1537    2.3318 H   0  0  0  0  0  0  0  0  0  0  0  0
    3.6706   -0.3002    1.9911 H   0  0  0  0  0  0  0  0  0  0  0  0
    2.1388    1.3252    2.2292 H   0  0  0  0  0  0  0  0  0  0  0  0
    3.8210    1.7562    0.7703 H   0  0  0  0  0  0  0  0  0  0  0  0
    2.7491    1.2366   -0.4558 H   0  0  0  0  0  0  0  0  0  0  0  0
  2  1  1  0  0  0  0
  3  2  1  0  0  0  0
  4  2  1  0  0  0  0
  5  4  1  0  0  0  0
  6  5  1  0  0  0  0
  7  6  1  0  0  0  0
  8  6  1  0  0  0  0
  9  8  1  0  0  0  0
 10  9  1  0  0  0  0
 11 10  1  0  0  0  0
 12 11  1  0  0  0  0
 13 12  1  0  0  0  0
 14 12  1  0  0  0  0
 15 14  1  0  0  0  0
 16 14  1  0  0  0  0
 17 16  1  0  0  0  0
 18 17  1  0  0  0  0
 19 18  1  0  0  0  0
 20 19  1  0  0  0  0
 21 20  1  0  0  0  0
 22 21  2  0  0  0  0
 23 21  1  0  0  0  0
 24 23  1  0  0  0  0
 25 24  1  0  0  0  0
 26 25  1  0  0  0  0
 27 26  1  0  0  0  0
 28 27  1  0  0  0  0
 29 28  1  0  0  0  0
 29 25  1  0  0  0  0
 29 23  1  0  0  0  0
 30 19  1  0  0  0  0
 30  9  1  0  0  0  0
 31 16  1  0  0  0  0
 31 14  1  0  0  0  0
 32 31  1  0  0  0  0
 33 31  1  0  0  0  0
 34 33  1  0  0  0  0
 35 34  1  0  0  0  0
 35  8  1  0  0  0  0
 36 35  1  0  0  0  0
 37 36  1  0  0  0  0
 38 37  1  0  0  0  0
 39 38  1  0  0  0  0
 40 39  1  0  0  0  0
 41 40  1  0  0  0  0
 41 35  1  0  0  0  0
 42  6  1  0  0  0  0
 43 42  1  0  0  0  0
 44 42  1  0  0  0  0
 44  2  1  0  0  0  0
  1 45  1  0  0  0  0
  1 46  1  0  0  0  0
  1 47  1  0  0  0  0
  3 48  1  0  0  0  0
  3 49  1  0  0  0  0
  3 50  1  0  0  0  0
  4 51  1  0  0  0  0
  4 52  1  0  0  0  0
  5 53  1  0  0  0  0
  5 54  1  0  0  0  0
  7 55  1  0  0  0  0
  7 56  1  0  0  0  0
  7 57  1  0  0  0  0
  8 58  1  0  0  0  0
  9 59  1  0  0  0  0
 10 60  1  0  0  0  0
 10 61  1  0  0  0  0
 11 62  1  0  0  0  0
 11 63  1  0  0  0  0
 12 64  1  0  0  0  0
 13 65  1  0  0  0  0
 15 66  1  0  0  0  0
 15 67  1  0  0  0  0
 15 68  1  0  0  0  0
 16 69  1  0  0  0  0
 17 70  1  0  0  0  0
 17 71  1  0  0  0  0
 18 72  1  0  0  0  0
 18 73  1  0  0  0  0
 19 74  1  0  0  0  0
 24 75  1  0  0  0  0
 24 76  1  0  0  0  0
 25 77  1  0  0  0  0
 26 78  1  0  0  0  0
 26 79  1  0  0  0  0
 27 80  1  0  0  0  0
 27 81  1  0  0  0  0
 28 82  1  0  0  0  0
 28 83  1  0  0  0  0
 29 84  1  0  0  0  0
 30 85  1  0  0  0  0
 30 86  1  0  0  0  0
 32 87  1  0  0  0  0
 32 88  1  0  0  0  0
 32 89  1  0  0  0  0
 33 90  1  0  0  0  0
 33 91  1  0  0  0  0
 34 92  1  0  0  0  0
 34 93  1  0  0  0  0
 36 94  1  0  0  0  0
 36 95  1  0  0  0  0
 37 96  1  0  0  0  0
 37 97  1  0  0  0  0
 39 98  1  0  0  0  0
 39 99  1  0  0  0  0
 40100  1  0  0  0  0
 40101  1  0  0  0  0
 41102  1  0  0  0  0
 42103  1  0  0  0  0
 43104  1  0  0  0  0
 44105  1  0  0  0  0
 44106  1  0  0  0  0
M  END
>  <energy>
265.01212788073394

$$$$
