CC1(C)C2C3C4C2C3C4(CNC(=O)C2CC3(CS(N)(=O)=O)C(C)(C)C23Br)C1(C)C
                    3D

 62 67  0  0  0  0  0  0  0  0999 V2000
    4.8556    2.2726   -0.0410 C   0  0  0  0  0  0  0  0  0  0  0  0
    4.1044    1.2173    0.8003 C   0  0  0  0  0  0  0  0  0  0  0  0
    4.0608    1.7397    2.2489 C   0  0  0  0  0  0  0  0  0  0  0  0
    5.0127   -0.1612    0.7396 C   0  0  0  0  0  0  0  0  0  0  0  0
    4.9275   -1.2560   -0.4750 C   0  0  0  0  0  0  0  0  0  0  0  0
    3.8159   -0.3435   -0.8784 C   0  0  0  0  0  0  0  0  0  0  0  0
    3.8223   -0.9314    1.0294 C   0  0  0  0  0  0  0  0  0  0  0  0
    3.6915   -2.0384    0.1071 C   0  0  0  0  0  0  0  0  0  0  0  0
    2.5278   -0.8281   -0.3871 C   0  0  0  0  0  0  0  0  0  0  0  0
    1.3856   -1.2590   -1.2837 C   0  0  0  0  0  0  0  0  0  0  0  0
    0.6972   -2.3233   -0.5781 N   0  0  0  0  0  0  0  0  0  0  0  0
   -0.6399   -2.5111   -0.3095 C   0  0  0  0  0  0  0  0  0  0  0  0
   -0.9487   -3.6460    0.0811 O   0  0  0  0  0  0  0  0  0  0  0  0
   -1.6668   -1.3565   -0.5412 C   0  0  0  0  0  0  0  0  0  0  0  0
   -3.0989   -1.8190   -0.9054 C   0  0  0  0  0  0  0  0  0  0  0  0
   -3.5406   -0.5402   -0.2721 C   0  0  0  0  0  0  0  0  0  0  0  0
   -3.7525    0.6057   -1.2474 C   0  0  0  0  0  0  0  0  0  0  0  0
   -5.4674    0.4945   -1.7879 S   0  0  0  0  0  0  0  0  0  0  0  0
   -5.4297    1.4759   -3.1551 N   0  0  0  0  0  0  0  0  0  0  0  0
   -6.3372    1.1830   -0.8608 O   0  0  0  0  0  0  0  0  0  0  0  0
   -5.7609   -0.8210   -2.3015 O   0  0  0  0  0  0  0  0  0  0  0  0
   -3.8169   -0.3414    1.1380 C   0  0  0  0  0  0  0  0  0  0  0  0
   -4.0755    1.0331    1.7177 C   0  0  0  0  0  0  0  0  0  0  0  0
   -4.7291   -1.3958    1.7499 C   0  0  0  0  0  0  0  0  0  0  0  0
   -2.3044   -0.6277    0.6694 C   0  0  0  0  0  0  0  0  0  0  0  0
   -1.6246   -1.3215    2.3392 Br  0  0  0  0  0  0  0  0  0  0  0  0
    2.4807    0.8226    0.1654 C   0  0  0  0  0  0  0  0  0  0  0  0
    1.3567    0.9457    1.2158 C   0  0  0  0  0  0  0  0  0  0  0  0
    2.0964    1.7929   -0.9925 C   0  0  0  0  0  0  0  0  0  0  0  0
    5.8700    2.4219    0.3499 H   0  0  0  0  0  0  0  0  0  0  0  0
    4.9688    1.9772   -1.0887 H   0  0  0  0  0  0  0  0  0  0  0  0
    4.3480    3.2423   -0.0090 H   0  0  0  0  0  0  0  0  0  0  0  0
    3.5143    2.6861    2.3038 H   0  0  0  0  0  0  0  0  0  0  0  0
    5.0757    1.9177    2.6216 H   0  0  0  0  0  0  0  0  0  0  0  0
    3.5944    1.0375    2.9431 H   0  0  0  0  0  0  0  0  0  0  0  0
    5.8352   -0.2447    1.4523 H   0  0  0  0  0  0  0  0  0  0  0  0
    5.7104   -1.5637   -1.1540 H   0  0  0  0  0  0  0  0  0  0  0  0
    3.7589   -0.6828   -1.9246 H   0  0  0  0  0  0  0  0  0  0  0  0
    3.1202   -0.7899    1.8405 H   0  0  0  0  0  0  0  0  0  0  0  0
    3.5682   -3.0135    0.5544 H   0  0  0  0  0  0  0  0  0  0  0  0
    0.7078   -0.4532   -1.5416 H   0  0  0  0  0  0  0  0  0  0  0  0
    1.7530   -1.7035   -2.2149 H   0  0  0  0  0  0  0  0  0  0  0  0
    1.2183   -3.1796   -0.4228 H   0  0  0  0  0  0  0  0  0  0  0  0
   -1.2853   -0.6214   -1.2684 H   0  0  0  0  0  0  0  0  0  0  0  0
   -3.4403   -2.7452   -0.4340 H   0  0  0  0  0  0  0  0  0  0  0  0
   -3.2703   -1.9233   -1.9801 H   0  0  0  0  0  0  0  0  0  0  0  0
   -3.1367    0.4872   -2.1430 H   0  0  0  0  0  0  0  0  0  0  0  0
   -3.5938    1.5995   -0.8274 H   0  0  0  0  0  0  0  0  0  0  0  0
   -6.0329    2.2878   -3.0216 H   0  0  0  0  0  0  0  0  0  0  0  0
   -5.6711    0.9207   -3.9792 H   0  0  0  0  0  0  0  0  0  0  0  0
   -3.3508    1.7743    1.3684 H   0  0  0  0  0  0  0  0  0  0  0  0
   -4.0025    1.0068    2.8102 H   0  0  0  0  0  0  0  0  0  0  0  0
   -5.0811    1.3823    1.4658 H   0  0  0  0  0  0  0  0  0  0  0  0
   -4.7554   -1.2998    2.8406 H   0  0  0  0  0  0  0  0  0  0  0  0
   -4.4158   -2.4182    1.5216 H   0  0  0  0  0  0  0  0  0  0  0  0
   -5.7523   -1.2671    1.3800 H   0  0  0  0  0  0  0  0  0  0  0  0
    1.4696    0.2758    2.0695 H   0  0  0  0  0  0  0  0  0  0  0  0
    0.3911    0.7037    0.7609 H   0  0  0  0  0  0  0  0  0  0  0  0
    1.2878    1.9683    1.6001 H   0  0  0  0  0  0  0  0  0  0  0  0
    1.0670    1.6326   -1.3311 H   0  0  0  0  0  0  0  0  0  0  0  0
    2.1499    2.8342   -0.6544 H   0  0  0  0  0  0  0  0  0  0  0  0
    2.7377    1.6883   -1.8733 H   0  0  0  0  0  0  0  0  0  0  0  0
  2  1  1  0  0  0  0
  3  2  1  0  0  0  0
  4  2  1  0  0  0  0
  5  4  1  0  0  0  0
  6  5  1  0  0  0  0
  7  6  1  0  0  0  0
  7  4  1  0  0  0  0
  8  7  1  0  0  0  0
  8  5  1  0  0  0  0
  9  8  1  0  0  0  0
  9  6  1  0  0  0  0
 10  9  1  0  0  0  0
 11 10  1  0  0  0  0
 12 11  1  0  0  0  0
 13 12  2  0  0  0  0
 14 12  1  0  0  0  0
 15 14  1  0  0  0  0
 16 15  1  0  0  0  0
 17 16  1  0  0  0  0
 18 17  1  0  0  0  0
 19 18  1  0  0  0  0
 20 18  2  0  0  0  0
 21 18  2  0  0  0  0
 22 16  1  0  0  0  0
 23 22  1  0  0  0  0
 24 22  1  0  0  0  0
 25 22  1  0  0  0  0
 25 14  1  0  0  0  0
 25 16  1  0  0  0  0
 26 25  1  0  0  0  0
 27  9  1  0  0  0  0
 27  2  1  0  0  0  0
 28 27  1  0  0  0  0
 29 27  1  0  0  0  0
  1 30  1  0  0  0  0
  1 31  1  0  0  0  0
  1 32  1  0  0  0  0
  3 33  1  0  0  0  0
  3 34  1  0  0  0  0
  3 35  1  0  0  0  0
  4 36  1  0  0  0  0
  5 37  1  0  0  0  0
  6 38  1  0  0  0  0
  7 39  1  0  0  0  0
  8 40  1  0  0  0  0
 10 41  1  0  0  0  0
 10 42  1  0  0  0  0
 11 43  1  0  0  0  0
 14 44  1  0  0  0  0
 15 45  1  0  0  0  0
 15 46  1  0  0  0  0
 17 47  1  0  0  0  0
 17 48  1  0  0  0  0
 19 49  1  0  0  0  0
 19 50  1  0  0  0  0
 23 51  1  0  0  0  0
 23 52  1  0  0  0  0
 23 53  1  0  0  0  0
 24 54  1  0  0  0  0
 24 55  1  0  0  0  0
 24 56  1  0  0  0  0
 28 57  1  0  0  0  0
 28 58  1  0  0  0  0
 28 59  1  0  0  0  0
 29 60  1  0  0  0  0
 29 61  1  0  0  0  0
 29 62  1  0  0  0  0
M  END
>  <energy>
295.67550248861119

$$$$
