CC#CC#CC=CC1(C(=O)O)CC23C1CC2(CBr)C1(C(=O)O)CC3(C(C)C)C(=O)C1=[N-]
                    3D

 54 57  0  0  0  0  0  0  0  0999 V2000
    6.5939    0.9490    0.1207 C   0  0  0  0  0  0  0  0  0  0  0  0
    5.9694    0.3139   -1.0353 C   0  0  0  0  0  0  0  0  0  0  0  0
    5.2820   -0.2200   -1.8681 C   0  0  0  0  0  0  0  0  0  0  0  0
    4.2715   -0.8318   -2.5653 C   0  0  0  0  0  0  0  0  0  0  0  0
    3.2266   -1.3729   -2.8008 C   0  0  0  0  0  0  0  0  0  0  0  0
    1.9796   -1.9967   -2.5264 C   0  0  0  0  0  0  0  0  0  0  0  0
    0.8476   -1.2697   -2.4468 C   0  0  0  0  0  0  0  0  0  0  0  0
   -0.2134   -1.7126   -1.4422 C   0  0  0  0  0  0  0  0  0  0  0  0
   -0.7034   -3.1741   -1.7976 C   0  0  0  0  0  0  0  0  0  0  0  0
   -0.3429   -4.2225   -1.2703 O   0  0  0  0  0  0  0  0  0  0  0  0
   -1.6042   -3.2071   -2.8235 O   0  0  0  0  0  0  0  0  0  0  0  0
    0.3375   -1.4521    0.0118 C   0  0  0  0  0  0  0  0  0  0  0  0
   -0.7332   -0.3727    0.2264 C   0  0  0  0  0  0  0  0  0  0  0  0
   -1.3265   -0.6416   -1.1595 C   0  0  0  0  0  0  0  0  0  0  0  0
   -2.6466   -1.0900   -0.5079 C   0  0  0  0  0  0  0  0  0  0  0  0
   -2.0668   -0.9336    0.9316 C   0  0  0  0  0  0  0  0  0  0  0  0
   -2.0921   -2.2608    1.7040 C   0  0  0  0  0  0  0  0  0  0  0  0
   -3.9045   -2.9636    1.9326 Br  0  0  0  0  0  0  0  0  0  0  0  0
   -2.4150    0.3061    1.8581 C   0  0  0  0  0  0  0  0  0  0  0  0
   -3.8695    0.4812    2.2569 C   0  0  0  0  0  0  0  0  0  0  0  0
   -4.4884    0.0486    3.2140 O   0  0  0  0  0  0  0  0  0  0  0  0
   -4.5858    1.1827    1.3453 O   0  0  0  0  0  0  0  0  0  0  0  0
   -1.9155    1.5234    1.0095 C   0  0  0  0  0  0  0  0  0  0  0  0
   -0.4675    1.0316    0.7884 C   0  0  0  0  0  0  0  0  0  0  0  0
    0.4685    1.9668   -0.0018 C   0  0  0  0  0  0  0  0  0  0  0  0
    0.8133    3.2631    0.7584 C   0  0  0  0  0  0  0  0  0  0  0  0
   -0.0637    2.4152   -1.3702 C   0  0  0  0  0  0  0  0  0  0  0  0
   -0.0665    0.8247    2.2491 C   0  0  0  0  0  0  0  0  0  0  0  0
    1.0375    0.8417    2.7421 O   0  0  0  0  0  0  0  0  0  0  0  0
   -1.3387    0.4278    2.9123 C   0  0  0  0  0  0  0  0  0  0  0  0
   -1.4877    0.2023    4.1952 N   0  5  0  0  0  0  0  0  0  0  0  0
    6.3853    2.0253    0.1498 H   0  0  0  0  0  0  0  0  0  0  0  0
    7.6753    0.7938    0.1224 H   0  0  0  0  0  0  0  0  0  0  0  0
    6.1956    0.5183    1.0461 H   0  0  0  0  0  0  0  0  0  0  0  0
    2.0461   -2.9910   -2.0787 H   0  0  0  0  0  0  0  0  0  0  0  0
    0.8205   -0.2538   -2.8419 H   0  0  0  0  0  0  0  0  0  0  0  0
   -1.8122   -2.3203   -3.1703 H   0  0  0  0  0  0  0  0  0  0  0  0
    0.3104   -2.3058    0.6894 H   0  0  0  0  0  0  0  0  0  0  0  0
    1.3631   -1.0583    0.0688 H   0  0  0  0  0  0  0  0  0  0  0  0
   -1.4591    0.1521   -1.8892 H   0  0  0  0  0  0  0  0  0  0  0  0
   -2.9674   -2.0914   -0.8036 H   0  0  0  0  0  0  0  0  0  0  0  0
   -3.4928   -0.4183   -0.6937 H   0  0  0  0  0  0  0  0  0  0  0  0
   -1.6061   -3.0662    1.1508 H   0  0  0  0  0  0  0  0  0  0  0  0
   -1.6511   -2.2084    2.7020 H   0  0  0  0  0  0  0  0  0  0  0  0
   -5.4482    1.1960    1.8160 H   0  0  0  0  0  0  0  0  0  0  0  0
   -1.9784    2.4667    1.5694 H   0  0  0  0  0  0  0  0  0  0  0  0
   -2.4727    1.6390    0.0713 H   0  0  0  0  0  0  0  0  0  0  0  0
    1.4151    1.4373   -0.1768 H   0  0  0  0  0  0  0  0  0  0  0  0
    1.3349    3.0665    1.6987 H   0  0  0  0  0  0  0  0  0  0  0  0
   -0.0839    3.8506    0.9757 H   0  0  0  0  0  0  0  0  0  0  0  0
    1.4843    3.8888    0.1560 H   0  0  0  0  0  0  0  0  0  0  0  0
   -1.0677    2.8458   -1.3047 H   0  0  0  0  0  0  0  0  0  0  0  0
    0.5903    3.1785   -1.8113 H   0  0  0  0  0  0  0  0  0  0  0  0
   -0.0767    1.5979   -2.0872 H   0  0  0  0  0  0  0  0  0  0  0  0
  2  1  1  0  0  0  0
  3  2  3  0  0  0  0
  4  3  1  0  0  0  0
  5  4  3  0  0  0  0
  6  5  1  0  0  0  0
  7  6  2  0  0  0  0
  8  7  1  0  0  0  0
  9  8  1  0  0  0  0
 10  9  2  0  0  0  0
 11  9  1  0  0  0  0
 12  8  1  0  0  0  0
 13 12  1  0  0  0  0
 14 13  1  0  0  0  0
 14  8  1  0  0  0  0
 15 14  1  0  0  0  0
 16 15  1  0  0  0  0
 16 13  1  0  0  0  0
 17 16  1  0  0  0  0
 18 17  1  0  0  0  0
 19 16  1  0  0  0  0
 20 19  1  0  0  0  0
 21 20  2  0  0  0  0
 22 20  1  0  0  0  0
 23 19  1  0  0  0  0
 24 23  1  0  0  0  0
 24 13  1  0  0  0  0
 25 24  1  0  0  0  0
 26 25  1  0  0  0  0
 27 25  1  0  0  0  0
 28 24  1  0  0  0  0
 29 28  2  0  0  0  0
 30 28  1  0  0  0  0
 30 19  1  0  0  0  0
 31 30  2  0  0  0  0
  1 32  1  0  0  0  0
  1 33  1  0  0  0  0
  1 34  1  0  0  0  0
  6 35  1  0  0  0  0
  7 36  1  0  0  0  0
 11 37  1  0  0  0  0
 12 38  1  0  0  0  0
 12 39  1  0  0  0  0
 14 40  1  0  0  0  0
 15 41  1  0  0  0  0
 15 42  1  0  0  0  0
 17 43  1  0  0  0  0
 17 44  1  0  0  0  0
 22 45  1  0  0  0  0
 23 46  1  0  0  0  0
 23 47  1  0  0  0  0
 25 48  1  0  0  0  0
 26 49  1  0  0  0  0
 26 50  1  0  0  0  0
 26 51  1  0  0  0  0
 27 52  1  0  0  0  0
 27 53  1  0  0  0  0
 27 54  1  0  0  0  0
M  CHG  1  31  -1
M  END
>  <energy>
142.03045275493122

$$$$
