CCNC(=O)N1CC2C1C1CC3(CCl)C(O)C4CC5(CBr)CC(OC)C3CC4C215
                    3D

 61 66  0  0  0  0  0  0  0  0999 V2000
   -4.7485   -2.9022    2.5359 C   0  0  0  0  0  0  0  0  0  0  0  0
   -4.8699   -1.5314    1.9036 C   0  0  0  0  0  0  0  0  0  0  0  0
   -3.6254   -0.7900    1.9481 N   0  0  0  0  0  0  0  0  0  0  0  0
   -3.6406    0.5581    1.6722 C   0  0  0  0  0  0  0  0  0  0  0  0
   -4.6651    1.2288    1.6605 O   0  0  0  0  0  0  0  0  0  0  0  0
   -2.4026    1.0914    1.3839 N   0  0  0  0  0  0  0  0  0  0  0  0
   -2.2685    2.2496    0.4543 C   0  0  0  0  0  0  0  0  0  0  0  0
   -0.7732    2.0669    0.6554 C   0  0  0  0  0  0  0  0  0  0  0  0
   -1.3086    0.4323    0.7048 C   0  0  0  0  0  0  0  0  0  0  0  0
    0.1498    0.2431    1.0867 C   0  0  0  0  0  0  0  0  0  0  0  0
    1.1750   -0.9277    1.3625 C   0  0  0  0  0  0  0  0  0  0  0  0
    2.5908   -0.9036    0.5468 C   0  0  0  0  0  0  0  0  0  0  0  0
    3.4154   -2.0849    1.1139 C   0  0  0  0  0  0  0  0  0  0  0  0
    4.8577   -2.5544    0.1837 Cl  0  0  0  0  0  0  0  0  0  0  0  0
    3.6478    0.6655    0.6671 C   0  0  0  0  0  0  0  0  0  0  0  0
    4.9909    0.5034    0.2402 O   0  0  0  0  0  0  0  0  0  0  0  0
    2.8851    2.1387   -0.1563 C   0  0  0  0  0  0  0  0  0  0  0  0
    2.0357    2.5437   -1.5262 C   0  0  0  0  0  0  0  0  0  0  0  0
    0.4755    1.6968   -1.6485 C   0  0  0  0  0  0  0  0  0  0  0  0
   -0.5338    2.6993   -2.2211 C   0  0  0  0  0  0  0  0  0  0  0  0
   -0.0902    3.2040   -4.0517 Br  0  0  0  0  0  0  0  0  0  0  0  0
    0.2212    0.2455   -2.3300 C   0  0  0  0  0  0  0  0  0  0  0  0
    0.7938   -1.1435   -1.6920 C   0  0  0  0  0  0  0  0  0  0  0  0
   -0.1890   -1.8105   -0.9090 O   0  0  0  0  0  0  0  0  0  0  0  0
   -0.9635   -2.7488   -1.6452 C   0  0  0  0  0  0  0  0  0  0  0  0
    2.1869   -1.1205   -0.9676 C   0  0  0  0  0  0  0  0  0  0  0  0
    2.5783    0.2167   -1.3332 C   0  0  0  0  0  0  0  0  0  0  0  0
    1.8176    1.2156   -0.0306 C   0  0  0  0  0  0  0  0  0  0  0  0
    0.3561    1.4062   -0.1827 C   0  0  0  0  0  0  0  0  0  0  0  0
   -3.9903   -3.5054    2.0264 H   0  0  0  0  0  0  0  0  0  0  0  0
   -4.4676   -2.8213    3.5910 H   0  0  0  0  0  0  0  0  0  0  0  0
   -5.7047   -3.4333    2.4730 H   0  0  0  0  0  0  0  0  0  0  0  0
   -5.1525   -1.6278    0.8488 H   0  0  0  0  0  0  0  0  0  0  0  0
   -5.6548   -0.9552    2.4052 H   0  0  0  0  0  0  0  0  0  0  0  0
   -2.7741   -1.2817    1.7233 H   0  0  0  0  0  0  0  0  0  0  0  0
   -2.7107    2.0607   -0.5266 H   0  0  0  0  0  0  0  0  0  0  0  0
   -2.6736    3.1753    0.8712 H   0  0  0  0  0  0  0  0  0  0  0  0
   -0.4218    2.5502    1.5810 H   0  0  0  0  0  0  0  0  0  0  0  0
   -1.6341   -0.0239   -0.2356 H   0  0  0  0  0  0  0  0  0  0  0  0
    0.2335    0.6847    2.1069 H   0  0  0  0  0  0  0  0  0  0  0  0
    1.4362   -0.9053    2.4316 H   0  0  0  0  0  0  0  0  0  0  0  0
    0.6743   -1.8917    1.2280 H   0  0  0  0  0  0  0  0  0  0  0  0
    3.7501   -1.8508    2.1291 H   0  0  0  0  0  0  0  0  0  0  0  0
    2.7937   -2.9848    1.1721 H   0  0  0  0  0  0  0  0  0  0  0  0
    3.7003    0.8860    1.7464 H   0  0  0  0  0  0  0  0  0  0  0  0
    5.4188    1.3762    0.2531 H   0  0  0  0  0  0  0  0  0  0  0  0
    2.8695    2.9649    0.5645 H   0  0  0  0  0  0  0  0  0  0  0  0
    1.7867    3.6080   -1.4040 H   0  0  0  0  0  0  0  0  0  0  0  0
    2.6245    2.4763   -2.4505 H   0  0  0  0  0  0  0  0  0  0  0  0
   -0.5774    3.6315   -1.6501 H   0  0  0  0  0  0  0  0  0  0  0  0
   -1.5410    2.2812   -2.2904 H   0  0  0  0  0  0  0  0  0  0  0  0
   -0.8657    0.1087   -2.4011 H   0  0  0  0  0  0  0  0  0  0  0  0
    0.5690    0.3034   -3.3712 H   0  0  0  0  0  0  0  0  0  0  0  0
    0.9694   -1.7645   -2.5851 H   0  0  0  0  0  0  0  0  0  0  0  0
   -1.4669   -2.2638   -2.4857 H   0  0  0  0  0  0  0  0  0  0  0  0
   -1.7202   -3.1665   -0.9754 H   0  0  0  0  0  0  0  0  0  0  0  0
   -0.3276   -3.5659   -1.9986 H   0  0  0  0  0  0  0  0  0  0  0  0
    2.8249   -1.8649   -1.4500 H   0  0  0  0  0  0  0  0  0  0  0  0
    2.3708    0.4706   -2.3796 H   0  0  0  0  0  0  0  0  0  0  0  0
    3.6697    0.2912   -1.4361 H   0  0  0  0  0  0  0  0  0  0  0  0
    1.8928    1.1497    1.0630 H   0  0  0  0  0  0  0  0  0  0  0  0
  2  1  1  0  0  0  0
  3  2  1  0  0  0  0
  4  3  1  0  0  0  0
  5  4  2  0  0  0  0
  6  4  1  0  0  0  0
  7  6  1  0  0  0  0
  8  7  1  0  0  0  0
  9  8  1  0  0  0  0
  9  6  1  0  0  0  0
 10  9  1  0  0  0  0
 11 10  1  0  0  0  0
 12 11  1  0  0  0  0
 13 12  1  0  0  0  0
 14 13  1  0  0  0  0
 15 12  1  0  0  0  0
 16 15  1  0  0  0  0
 17 15  1  0  0  0  0
 18 17  1  0  0  0  0
 19 18  1  0  0  0  0
 20 19  1  0  0  0  0
 21 20  1  0  0  0  0
 22 19  1  0  0  0  0
 23 22  1  0  0  0  0
 24 23  1  0  0  0  0
 25 24  1  0  0  0  0
 26 23  1  0  0  0  0
 26 12  1  0  0  0  0
 27 26  1  0  0  0  0
 28 27  1  0  0  0  0
 28 17  1  0  0  0  0
 29 28  1  0  0  0  0
 29  8  1  0  0  0  0
 29 10  1  0  0  0  0
 29 19  1  0  0  0  0
  1 30  1  0  0  0  0
  1 31  1  0  0  0  0
  1 32  1  0  0  0  0
  2 33  1  0  0  0  0
  2 34  1  0  0  0  0
  3 35  1  0  0  0  0
  7 36  1  0  0  0  0
  7 37  1  0  0  0  0
  8 38  1  0  0  0  0
  9 39  1  0  0  0  0
 10 40  1  0  0  0  0
 11 41  1  0  0  0  0
 11 42  1  0  0  0  0
 13 43  1  0  0  0  0
 13 44  1  0  0  0  0
 15 45  1  0  0  0  0
 16 46  1  0  0  0  0
 17 47  1  0  0  0  0
 18 48  1  0  0  0  0
 18 49  1  0  0  0  0
 20 50  1  0  0  0  0
 20 51  1  0  0  0  0
 22 52  1  0  0  0  0
 22 53  1  0  0  0  0
 23 54  1  0  0  0  0
 25 55  1  0  0  0  0
 25 56  1  0  0  0  0
 25 57  1  0  0  0  0
 26 58  1  0  0  0  0
 27 59  1  0  0  0  0
 27 60  1  0  0  0  0
 28 61  1  0  0  0  0
M  END
>  <energy>
444.40676863701884

$$$$
