CN=c1ncc(NC(=O)Nc2cccnc2)c(N2C=CC3=CC(C#Cc4ccc(C(=O)N(C)C)nc4)=Cn4ncc3c42)[nH]1
                    3D

 68 73  0  0  0  0  0  0  0  0999 V2000
   -0.3151    3.1336    3.7869 C   0  0  0  0  0  0  0  0  0  0  0  0
   -1.3568    2.4982    4.5762 N   0  0  0  0  0  0  0  0  0  0  0  0
   -2.3423    1.9664    3.9414 C   0  0  0  0  0  0  0  0  0  0  0  0
   -2.9255    0.9280    4.6113 N   0  0  0  0  0  0  0  0  0  0  0  0
   -3.0632   -0.0997    3.8356 C   0  0  0  0  0  0  0  0  0  0  0  0
   -2.8102   -0.1406    2.3586 C   0  0  0  0  0  0  0  0  0  0  0  0
   -2.7149   -1.3798    1.7354 N   0  0  0  0  0  0  0  0  0  0  0  0
   -1.4635   -1.7843    1.3392 C   0  0  0  0  0  0  0  0  0  0  0  0
   -0.4398   -1.1854    1.6821 O   0  0  0  0  0  0  0  0  0  0  0  0
   -1.3379   -2.8299    0.4778 N   0  0  0  0  0  0  0  0  0  0  0  0
   -2.2961   -3.4507   -0.3390 C   0  0  0  0  0  0  0  0  0  0  0  0
   -3.5846   -3.7690    0.0639 C   0  0  0  0  0  0  0  0  0  0  0  0
   -4.4759   -4.3274   -0.8492 C   0  0  0  0  0  0  0  0  0  0  0  0
   -4.0336   -4.5705   -2.1378 C   0  0  0  0  0  0  0  0  0  0  0  0
   -2.7715   -4.3572   -2.5490 N   0  0  0  0  0  0  0  0  0  0  0  0
   -1.9273   -3.8161   -1.6375 C   0  0  0  0  0  0  0  0  0  0  0  0
   -2.8169    1.0906    1.7652 C   0  0  0  0  0  0  0  0  0  0  0  0
   -2.8726    1.3173    0.3700 N   0  0  0  0  0  0  0  0  0  0  0  0
   -3.7390    2.2721   -0.2290 C   0  0  0  0  0  0  0  0  0  0  0  0
   -3.7414    2.5549   -1.5660 C   0  0  0  0  0  0  0  0  0  0  0  0
   -2.6872    1.9060   -2.3759 C   0  0  0  0  0  0  0  0  0  0  0  0
   -1.6250    2.7546   -2.5618 C   0  0  0  0  0  0  0  0  0  0  0  0
   -0.2790    2.5273   -1.9607 C   0  0  0  0  0  0  0  0  0  0  0  0
    0.9286    2.8032   -2.6594 C   0  0  0  0  0  0  0  0  0  0  0  0
    2.1020    2.5932   -2.8364 C   0  0  0  0  0  0  0  0  0  0  0  0
    3.3278    1.9015   -2.5734 C   0  0  0  0  0  0  0  0  0  0  0  0
    3.7005    0.8165   -3.3607 C   0  0  0  0  0  0  0  0  0  0  0  0
    4.5853   -0.1328   -2.8374 C   0  0  0  0  0  0  0  0  0  0  0  0
    5.0588    0.0407   -1.5354 C   0  0  0  0  0  0  0  0  0  0  0  0
    5.6084   -1.1633   -0.8177 C   0  0  0  0  0  0  0  0  0  0  0  0
    5.7198   -2.2365   -1.4151 O   0  0  0  0  0  0  0  0  0  0  0  0
    5.8002   -1.0920    0.5592 N   0  0  0  0  0  0  0  0  0  0  0  0
    6.5674   -0.0312    1.1748 C   0  0  0  0  0  0  0  0  0  0  0  0
    4.7736   -1.7074    1.3735 C   0  0  0  0  0  0  0  0  0  0  0  0
    4.8022    1.1544   -0.7979 N   0  0  0  0  0  0  0  0  0  0  0  0
    3.9378    2.0516   -1.3302 C   0  0  0  0  0  0  0  0  0  0  0  0
   -0.0870    1.8085   -0.8068 C   0  0  0  0  0  0  0  0  0  0  0  0
   -0.7621    0.5454   -0.6738 N   0  0  0  0  0  0  0  0  0  0  0  0
   -0.4984   -0.5459   -1.5075 N   0  0  0  0  0  0  0  0  0  0  0  0
   -1.4644   -0.3720   -2.4336 C   0  0  0  0  0  0  0  0  0  0  0  0
   -2.3992    0.5516   -1.9281 C   0  0  0  0  0  0  0  0  0  0  0  0
   -2.1898    0.5349   -0.5395 C   0  0  0  0  0  0  0  0  0  0  0  0
   -2.7295    2.1843    2.6415 N   0  0  0  0  0  0  0  0  0  0  0  0
   -0.0241    2.4796    2.9561 H   0  0  0  0  0  0  0  0  0  0  0  0
   -0.5776    4.1266    3.4165 H   0  0  0  0  0  0  0  0  0  0  0  0
    0.5810    3.2309    4.4072 H   0  0  0  0  0  0  0  0  0  0  0  0
   -3.4260   -1.0486    4.2652 H   0  0  0  0  0  0  0  0  0  0  0  0
   -3.1660   -2.1357    2.2342 H   0  0  0  0  0  0  0  0  0  0  0  0
   -0.3991   -2.7998    0.0815 H   0  0  0  0  0  0  0  0  0  0  0  0
   -3.8992   -3.6434    1.0884 H   0  0  0  0  0  0  0  0  0  0  0  0
   -5.4859   -4.5648   -0.5503 H   0  0  0  0  0  0  0  0  0  0  0  0
   -4.7073   -4.9583   -2.8944 H   0  0  0  0  0  0  0  0  0  0  0  0
   -0.9159   -3.6533   -2.0081 H   0  0  0  0  0  0  0  0  0  0  0  0
   -4.4460    2.7334    0.4496 H   0  0  0  0  0  0  0  0  0  0  0  0
   -4.3756    3.2905   -2.0225 H   0  0  0  0  0  0  0  0  0  0  0  0
   -1.8402    3.8153   -2.6987 H   0  0  0  0  0  0  0  0  0  0  0  0
    3.2122    0.6248   -4.3086 H   0  0  0  0  0  0  0  0  0  0  0  0
    4.8057   -1.0455   -3.3956 H   0  0  0  0  0  0  0  0  0  0  0  0
    7.3136    0.3473    0.4714 H   0  0  0  0  0  0  0  0  0  0  0  0
    7.0834   -0.4553    2.0418 H   0  0  0  0  0  0  0  0  0  0  0  0
    5.9130    0.7776    1.5024 H   0  0  0  0  0  0  0  0  0  0  0  0
    4.2899   -2.5307    0.8345 H   0  0  0  0  0  0  0  0  0  0  0  0
    4.0152   -0.9479    1.6000 H   0  0  0  0  0  0  0  0  0  0  0  0
    5.2206   -2.0799    2.3007 H   0  0  0  0  0  0  0  0  0  0  0  0
    3.6564    2.8669   -0.6629 H   0  0  0  0  0  0  0  0  0  0  0  0
   -0.3340    2.3893    0.0787 H   0  0  0  0  0  0  0  0  0  0  0  0
   -1.3067   -0.7662   -3.4250 H   0  0  0  0  0  0  0  0  0  0  0  0
   -2.3500    3.0037    2.2038 H   0  0  0  0  0  0  0  0  0  0  0  0
  2  1  1  0  0  0  0
  3  2  2  0  0  0  0
  4  3  1  0  0  0  0
  5  4  2  0  0  0  0
  6  5  1  0  0  0  0
  7  6  1  0  0  0  0
  8  7  1  0  0  0  0
  9  8  2  0  0  0  0
 10  8  1  0  0  0  0
 11 10  1  0  0  0  0
 12 11  2  0  0  0  0
 13 12  1  0  0  0  0
 14 13  2  0  0  0  0
 15 14  1  0  0  0  0
 16 15  2  0  0  0  0
 16 11  1  0  0  0  0
 17  6  2  0  0  0  0
 18 17  1  0  0  0  0
 19 18  1  0  0  0  0
 20 19  2  0  0  0  0
 21 20  1  0  0  0  0
 22 21  2  0  0  0  0
 23 22  1  0  0  0  0
 24 23  1  0  0  0  0
 25 24  3  0  0  0  0
 26 25  1  0  0  0  0
 27 26  2  0  0  0  0
 28 27  1  0  0  0  0
 29 28  2  0  0  0  0
 30 29  1  0  0  0  0
 31 30  2  0  0  0  0
 32 30  1  0  0  0  0
 33 32  1  0  0  0  0
 34 32  1  0  0  0  0
 35 29  1  0  0  0  0
 36 35  2  0  0  0  0
 36 26  1  0  0  0  0
 37 23  2  0  0  0  0
 38 37  1  0  0  0  0
 39 38  1  0  0  0  0
 40 39  2  0  0  0  0
 41 40  1  0  0  0  0
 41 21  1  0  0  0  0
 42 41  2  0  0  0  0
 42 38  1  0  0  0  0
 42 18  1  0  0  0  0
 43 17  1  0  0  0  0
 43  3  1  0  0  0  0
  1 44  1  0  0  0  0
  1 45  1  0  0  0  0
  1 46  1  0  0  0  0
  5 47  1  0  0  0  0
  7 48  1  0  0  0  0
 10 49  1  0  0  0  0
 12 50  1  0  0  0  0
 13 51  1  0  0  0  0
 14 52  1  0  0  0  0
 16 53  1  0  0  0  0
 19 54  1  0  0  0  0
 20 55  1  0  0  0  0
 22 56  1  0  0  0  0
 27 57  1  0  0  0  0
 28 58  1  0  0  0  0
 33 59  1  0  0  0  0
 33 60  1  0  0  0  0
 33 61  1  0  0  0  0
 34 62  1  0  0  0  0
 34 63  1  0  0  0  0
 34 64  1  0  0  0  0
 36 65  1  0  0  0  0
 37 66  1  0  0  0  0
 40 67  1  0  0  0  0
 43 68  1  0  0  0  0
M  END
>  <energy>
260.70317094890214

$$$$
