CCN(CC)C(=O)CC1(CC)OCC2CC(C)(C(=O)C=Cc3cc(C(C)(C)C)[nH]n3)CCc3c(C)c2c1c(F)c3O
                    3D

 87 90  0  0  0  0  0  0  0  0999 V2000
   -4.7714   -3.6836   -0.0089 C   0  0  0  0  0  0  0  0  0  0  0  0
   -3.6049   -2.7663   -0.3482 C   0  0  0  0  0  0  0  0  0  0  0  0
   -3.7298   -1.3831    0.1258 N   0  0  0  0  0  0  0  0  0  0  0  0
   -4.2538   -0.3910   -0.8166 C   0  0  0  0  0  0  0  0  0  0  0  0
   -5.7222   -0.6131   -1.1422 C   0  0  0  0  0  0  0  0  0  0  0  0
   -3.5320   -1.1435    1.4790 C   0  0  0  0  0  0  0  0  0  0  0  0
   -3.6646   -2.0432    2.3146 O   0  0  0  0  0  0  0  0  0  0  0  0
   -3.0777    0.2345    1.9460 C   0  0  0  0  0  0  0  0  0  0  0  0
   -1.5865    0.5860    1.6860 C   0  0  0  0  0  0  0  0  0  0  0  0
   -0.5517   -0.3183    2.4402 C   0  0  0  0  0  0  0  0  0  0  0  0
   -0.7474   -1.8212    2.5564 C   0  0  0  0  0  0  0  0  0  0  0  0
   -1.3180    1.8581    2.3845 O   0  0  0  0  0  0  0  0  0  0  0  0
   -1.7758    3.0615    1.7747 C   0  0  0  0  0  0  0  0  0  0  0  0
   -1.1369    3.2611    0.4016 C   0  0  0  0  0  0  0  0  0  0  0  0
    0.4339    3.3285    0.4828 C   0  0  0  0  0  0  0  0  0  0  0  0
    1.3576    3.7933   -0.7313 C   0  0  0  0  0  0  0  0  0  0  0  0
    1.5902    5.3230   -0.4747 C   0  0  0  0  0  0  0  0  0  0  0  0
    2.7699    3.1417   -0.6651 C   0  0  0  0  0  0  0  0  0  0  0  0
    3.7921    3.8081   -0.8534 O   0  0  0  0  0  0  0  0  0  0  0  0
    2.9001    1.6708   -0.4566 C   0  0  0  0  0  0  0  0  0  0  0  0
    4.0731    1.0512   -0.6643 C   0  0  0  0  0  0  0  0  0  0  0  0
    4.3234   -0.3412   -0.4613 C   0  0  0  0  0  0  0  0  0  0  0  0
    3.5461   -1.2393    0.3107 C   0  0  0  0  0  0  0  0  0  0  0  0
    4.2042   -2.4537    0.2692 C   0  0  0  0  0  0  0  0  0  0  0  0
    3.8963   -3.7743    0.9398 C   0  0  0  0  0  0  0  0  0  0  0  0
    4.0622   -3.6164    2.4639 C   0  0  0  0  0  0  0  0  0  0  0  0
    2.4443   -4.1825    0.6313 C   0  0  0  0  0  0  0  0  0  0  0  0
    4.8271   -4.9033    0.4613 C   0  0  0  0  0  0  0  0  0  0  0  0
    5.2947   -2.2243   -0.5304 N   0  0  0  0  0  0  0  0  0  0  0  0
    5.3948   -0.9606   -0.9707 N   0  0  0  0  0  0  0  0  0  0  0  0
    0.9076    3.7299   -2.2381 C   0  0  0  0  0  0  0  0  0  0  0  0
    0.6502    2.3876   -2.9839 C   0  0  0  0  0  0  0  0  0  0  0  0
   -0.3914    1.5355   -2.3112 C   0  0  0  0  0  0  0  0  0  0  0  0
   -1.4835    2.1867   -1.7793 C   0  0  0  0  0  0  0  0  0  0  0  0
   -2.2572    3.2525   -2.4924 C   0  0  0  0  0  0  0  0  0  0  0  0
   -1.5405    2.0349   -0.4086 C   0  0  0  0  0  0  0  0  0  0  0  0
   -1.2936    0.7762    0.1921 C   0  0  0  0  0  0  0  0  0  0  0  0
   -0.6622   -0.1611   -0.6216 C   0  0  0  0  0  0  0  0  0  0  0  0
   -0.3703   -1.3892   -0.1800 F   0  0  0  0  0  0  0  0  0  0  0  0
   -0.1052    0.2572   -1.8288 C   0  0  0  0  0  0  0  0  0  0  0  0
    0.8145   -0.5571   -2.4197 O   0  0  0  0  0  0  0  0  0  0  0  0
   -4.5806   -4.6854   -0.4103 H   0  0  0  0  0  0  0  0  0  0  0  0
   -4.9131   -3.7840    1.0714 H   0  0  0  0  0  0  0  0  0  0  0  0
   -5.7131   -3.3270   -0.4322 H   0  0  0  0  0  0  0  0  0  0  0  0
   -3.4381   -2.7492   -1.4326 H   0  0  0  0  0  0  0  0  0  0  0  0
   -2.6980   -3.1823    0.1027 H   0  0  0  0  0  0  0  0  0  0  0  0
   -4.1574    0.6166   -0.4108 H   0  0  0  0  0  0  0  0  0  0  0  0
   -3.6548   -0.4361   -1.7328 H   0  0  0  0  0  0  0  0  0  0  0  0
   -6.1128    0.2169   -1.7381 H   0  0  0  0  0  0  0  0  0  0  0  0
   -5.8638   -1.5263   -1.7295 H   0  0  0  0  0  0  0  0  0  0  0  0
   -6.3229   -0.6990   -0.2301 H   0  0  0  0  0  0  0  0  0  0  0  0
   -3.7533    0.9958    1.5424 H   0  0  0  0  0  0  0  0  0  0  0  0
   -3.2653    0.2800    3.0295 H   0  0  0  0  0  0  0  0  0  0  0  0
   -0.4600    0.0435    3.4755 H   0  0  0  0  0  0  0  0  0  0  0  0
    0.4421   -0.1363    2.0083 H   0  0  0  0  0  0  0  0  0  0  0  0
   -1.4641   -2.0581    3.3456 H   0  0  0  0  0  0  0  0  0  0  0  0
    0.1967   -2.2922    2.8496 H   0  0  0  0  0  0  0  0  0  0  0  0
   -1.0706   -2.2943    1.6313 H   0  0  0  0  0  0  0  0  0  0  0  0
   -1.4874    3.8861    2.4367 H   0  0  0  0  0  0  0  0  0  0  0  0
   -2.8722    3.0586    1.7180 H   0  0  0  0  0  0  0  0  0  0  0  0
   -1.5211    4.1907   -0.0281 H   0  0  0  0  0  0  0  0  0  0  0  0
    0.6528    4.0039    1.3215 H   0  0  0  0  0  0  0  0  0  0  0  0
    0.7946    2.3746    0.8733 H   0  0  0  0  0  0  0  0  0  0  0  0
    0.6414    5.8725   -0.4583 H   0  0  0  0  0  0  0  0  0  0  0  0
    2.1074    5.4937    0.4776 H   0  0  0  0  0  0  0  0  0  0  0  0
    2.2213    5.7722   -1.2525 H   0  0  0  0  0  0  0  0  0  0  0  0
    2.0324    1.1104   -0.1440 H   0  0  0  0  0  0  0  0  0  0  0  0
    4.9242    1.6306   -1.0176 H   0  0  0  0  0  0  0  0  0  0  0  0
    2.6357   -1.0273    0.8550 H   0  0  0  0  0  0  0  0  0  0  0  0
    5.0821   -3.3102    2.7240 H   0  0  0  0  0  0  0  0  0  0  0  0
    3.3787   -2.8605    2.8690 H   0  0  0  0  0  0  0  0  0  0  0  0
    3.8585   -4.5570    2.9874 H   0  0  0  0  0  0  0  0  0  0  0  0
    2.2867   -4.2995   -0.4462 H   0  0  0  0  0  0  0  0  0  0  0  0
    1.7260   -3.4351    0.9852 H   0  0  0  0  0  0  0  0  0  0  0  0
    2.1887   -5.1318    1.1127 H   0  0  0  0  0  0  0  0  0  0  0  0
    4.7267   -5.0748   -0.6156 H   0  0  0  0  0  0  0  0  0  0  0  0
    4.5997   -5.8465    0.9685 H   0  0  0  0  0  0  0  0  0  0  0  0
    5.8795   -4.6770    0.6633 H   0  0  0  0  0  0  0  0  0  0  0  0
    6.0189   -2.8772   -0.8044 H   0  0  0  0  0  0  0  0  0  0  0  0
    1.6917    4.2242   -2.8344 H   0  0  0  0  0  0  0  0  0  0  0  0
    0.0510    4.3972   -2.3561 H   0  0  0  0  0  0  0  0  0  0  0  0
    1.6004    1.8530   -3.0788 H   0  0  0  0  0  0  0  0  0  0  0  0
    0.3201    2.6049   -4.0057 H   0  0  0  0  0  0  0  0  0  0  0  0
   -2.1699    3.1387   -3.5790 H   0  0  0  0  0  0  0  0  0  0  0  0
   -1.9544    4.2650   -2.2299 H   0  0  0  0  0  0  0  0  0  0  0  0
   -3.3200    3.1527   -2.2474 H   0  0  0  0  0  0  0  0  0  0  0  0
    1.0299   -0.2265   -3.3071 H   0  0  0  0  0  0  0  0  0  0  0  0
  2  1  1  0  0  0  0
  3  2  1  0  0  0  0
  4  3  1  0  0  0  0
  5  4  1  0  0  0  0
  6  3  1  0  0  0  0
  7  6  2  0  0  0  0
  8  6  1  0  0  0  0
  9  8  1  0  0  0  0
 10  9  1  0  0  0  0
 11 10  1  0  0  0  0
 12  9  1  0  0  0  0
 13 12  1  0  0  0  0
 14 13  1  0  0  0  0
 15 14  1  0  0  0  0
 16 15  1  0  0  0  0
 17 16  1  0  0  0  0
 18 16  1  0  0  0  0
 19 18  2  0  0  0  0
 20 18  1  0  0  0  0
 21 20  2  0  0  0  0
 22 21  1  0  0  0  0
 23 22  1  0  0  0  0
 24 23  2  0  0  0  0
 25 24  1  0  0  0  0
 26 25  1  0  0  0  0
 27 25  1  0  0  0  0
 28 25  1  0  0  0  0
 29 24  1  0  0  0  0
 30 29  1  0  0  0  0
 30 22  2  0  0  0  0
 31 16  1  0  0  0  0
 32 31  1  0  0  0  0
 33 32  1  0  0  0  0
 34 33  2  0  0  0  0
 35 34  1  0  0  0  0
 36 34  1  0  0  0  0
 36 14  1  0  0  0  0
 37 36  2  0  0  0  0
 37  9  1  0  0  0  0
 38 37  1  0  0  0  0
 39 38  1  0  0  0  0
 40 38  2  0  0  0  0
 40 33  1  0  0  0  0
 41 40  1  0  0  0  0
  1 42  1  0  0  0  0
  1 43  1  0  0  0  0
  1 44  1  0  0  0  0
  2 45  1  0  0  0  0
  2 46  1  0  0  0  0
  4 47  1  0  0  0  0
  4 48  1  0  0  0  0
  5 49  1  0  0  0  0
  5 50  1  0  0  0  0
  5 51  1  0  0  0  0
  8 52  1  0  0  0  0
  8 53  1  0  0  0  0
 10 54  1  0  0  0  0
 10 55  1  0  0  0  0
 11 56  1  0  0  0  0
 11 57  1  0  0  0  0
 11 58  1  0  0  0  0
 13 59  1  0  0  0  0
 13 60  1  0  0  0  0
 14 61  1  0  0  0  0
 15 62  1  0  0  0  0
 15 63  1  0  0  0  0
 17 64  1  0  0  0  0
 17 65  1  0  0  0  0
 17 66  1  0  0  0  0
 20 67  1  0  0  0  0
 21 68  1  0  0  0  0
 23 69  1  0  0  0  0
 26 70  1  0  0  0  0
 26 71  1  0  0  0  0
 26 72  1  0  0  0  0
 27 73  1  0  0  0  0
 27 74  1  0  0  0  0
 27 75  1  0  0  0  0
 28 76  1  0  0  0  0
 28 77  1  0  0  0  0
 28 78  1  0  0  0  0
 29 79  1  0  0  0  0
 31 80  1  0  0  0  0
 31 81  1  0  0  0  0
 32 82  1  0  0  0  0
 32 83  1  0  0  0  0
 35 84  1  0  0  0  0
 35 85  1  0  0  0  0
 35 86  1  0  0  0  0
 41 87  1  0  0  0  0
M  END
>  <energy>
160.20594985777936

$$$$
