C#CCCCCC[n+]1ccc(CCC)c(C#CC2(C)[NH2+]C3NC(=O)N2C(=O)C3CO)c1
                    3D

 63 65  0  0  0  0  0  0  0  0999 V2000
    3.0828    2.6567   -3.7520 C   0  0  0  0  0  0  0  0  0  0  0  0
    3.1648    1.7022   -3.0303 C   0  0  0  0  0  0  0  0  0  0  0  0
    3.2531    0.5430   -2.1345 C   0  0  0  0  0  0  0  0  0  0  0  0
    4.6961    0.2604   -1.7001 C   0  0  0  0  0  0  0  0  0  0  0  0
    4.7636   -0.7984   -0.5943 C   0  0  0  0  0  0  0  0  0  0  0  0
    4.4648   -0.2032    0.7877 C   0  0  0  0  0  0  0  0  0  0  0  0
    4.1117   -1.2570    1.8400 C   0  0  0  0  0  0  0  0  0  0  0  0
    2.7693   -1.8332    1.5552 N   0  3  0  0  0  0  0  0  0  0  0  0
    2.6601   -3.1224    1.1622 C   0  0  0  0  0  0  0  0  0  0  0  0
    1.4226   -3.6445    0.7977 C   0  0  0  0  0  0  0  0  0  0  0  0
    0.2763   -2.8409    0.8344 C   0  0  0  0  0  0  0  0  0  0  0  0
   -1.0377   -3.4194    0.3621 C   0  0  0  0  0  0  0  0  0  0  0  0
   -2.0101   -3.7210    1.5038 C   0  0  0  0  0  0  0  0  0  0  0  0
   -3.4245   -3.9100    0.9757 C   0  0  0  0  0  0  0  0  0  0  0  0
    0.4056   -1.5213    1.2885 C   0  0  0  0  0  0  0  0  0  0  0  0
   -0.7051   -0.6101    1.3241 C   0  0  0  0  0  0  0  0  0  0  0  0
   -1.5720    0.2281    1.3058 C   0  0  0  0  0  0  0  0  0  0  0  0
   -2.4904    1.3923    1.2296 C   0  0  0  0  0  0  0  0  0  0  0  0
   -3.1811    1.5677    2.5940 C   0  0  0  0  0  0  0  0  0  0  0  0
   -3.5368    1.0958    0.1983 N   0  3  0  0  0  0  0  0  0  0  0  0
   -3.4492    2.0901   -0.9004 C   0  0  0  0  0  0  0  0  0  0  0  0
   -3.6612    3.3006   -0.1835 N   0  0  0  0  0  0  0  0  0  0  0  0
   -2.5959    3.6338    0.6344 C   0  0  0  0  0  0  0  0  0  0  0  0
   -2.4110    4.7550    1.0642 O   0  0  0  0  0  0  0  0  0  0  0  0
   -1.7550    2.5600    0.8087 N   0  0  0  0  0  0  0  0  0  0  0  0
   -1.1055    2.3493   -0.3946 C   0  0  0  0  0  0  0  0  0  0  0  0
    0.1124    2.3673   -0.5194 O   0  0  0  0  0  0  0  0  0  0  0  0
   -2.0571    1.9832   -1.5278 C   0  0  0  0  0  0  0  0  0  0  0  0
   -1.8370    2.8692   -2.7470 C   0  0  0  0  0  0  0  0  0  0  0  0
   -2.5860    4.0671   -2.6171 O   0  0  0  0  0  0  0  0  0  0  0  0
    1.6683   -1.0519    1.6660 C   0  0  0  0  0  0  0  0  0  0  0  0
    3.0205    3.5080   -4.3926 H   0  0  0  0  0  0  0  0  0  0  0  0
    2.6146    0.7227   -1.2626 H   0  0  0  0  0  0  0  0  0  0  0  0
    2.8496   -0.3420   -2.6413 H   0  0  0  0  0  0  0  0  0  0  0  0
    5.2593   -0.1003   -2.5686 H   0  0  0  0  0  0  0  0  0  0  0  0
    5.1944    1.1795   -1.3687 H   0  0  0  0  0  0  0  0  0  0  0  0
    5.7714   -1.2316   -0.5700 H   0  0  0  0  0  0  0  0  0  0  0  0
    4.0752   -1.6146   -0.8355 H   0  0  0  0  0  0  0  0  0  0  0  0
    3.6606    0.5357    0.7192 H   0  0  0  0  0  0  0  0  0  0  0  0
    5.3522    0.3459    1.1277 H   0  0  0  0  0  0  0  0  0  0  0  0
    4.0527   -0.8190    2.8428 H   0  0  0  0  0  0  0  0  0  0  0  0
    4.8492   -2.0649    1.8586 H   0  0  0  0  0  0  0  0  0  0  0  0
    3.5654   -3.7240    1.1242 H   0  0  0  0  0  0  0  0  0  0  0  0
    1.3641   -4.6799    0.4608 H   0  0  0  0  0  0  0  0  0  0  0  0
   -1.4822   -2.7266   -0.3609 H   0  0  0  0  0  0  0  0  0  0  0  0
   -0.8532   -4.3448   -0.1971 H   0  0  0  0  0  0  0  0  0  0  0  0
   -2.0256   -2.9138    2.2448 H   0  0  0  0  0  0  0  0  0  0  0  0
   -1.6870   -4.6243    2.0366 H   0  0  0  0  0  0  0  0  0  0  0  0
   -4.1071   -4.1590    1.7937 H   0  0  0  0  0  0  0  0  0  0  0  0
   -3.4699   -4.7133    0.2333 H   0  0  0  0  0  0  0  0  0  0  0  0
   -3.7830   -2.9876    0.5051 H   0  0  0  0  0  0  0  0  0  0  0  0
   -3.9191    2.3793    2.5843 H   0  0  0  0  0  0  0  0  0  0  0  0
   -3.7016    0.6507    2.8978 H   0  0  0  0  0  0  0  0  0  0  0  0
   -2.4486    1.8082    3.3753 H   0  0  0  0  0  0  0  0  0  0  0  0
   -4.4652    1.2265    0.6180 H   0  0  0  0  0  0  0  0  0  0  0  0
   -3.5042    0.1274   -0.1351 H   0  0  0  0  0  0  0  0  0  0  0  0
   -4.2742    1.8997   -1.5930 H   0  0  0  0  0  0  0  0  0  0  0  0
   -4.0301    4.1195   -0.6747 H   0  0  0  0  0  0  0  0  0  0  0  0
   -1.8369    0.9426   -1.8023 H   0  0  0  0  0  0  0  0  0  0  0  0
   -0.7809    3.1215   -2.8859 H   0  0  0  0  0  0  0  0  0  0  0  0
   -2.1981    2.3604   -3.6478 H   0  0  0  0  0  0  0  0  0  0  0  0
   -2.3197    4.6678   -3.3453 H   0  0  0  0  0  0  0  0  0  0  0  0
    1.8216   -0.0380    2.0281 H   0  0  0  0  0  0  0  0  0  0  0  0
  2  1  3  0  0  0  0
  3  2  1  0  0  0  0
  4  3  1  0  0  0  0
  5  4  1  0  0  0  0
  6  5  1  0  0  0  0
  7  6  1  0  0  0  0
  8  7  1  0  0  0  0
  9  8  2  0  0  0  0
 10  9  1  0  0  0  0
 11 10  2  0  0  0  0
 12 11  1  0  0  0  0
 13 12  1  0  0  0  0
 14 13  1  0  0  0  0
 15 11  1  0  0  0  0
 16 15  1  0  0  0  0
 17 16  3  0  0  0  0
 18 17  1  0  0  0  0
 19 18  1  0  0  0  0
 20 18  1  0  0  0  0
 21 20  1  0  0  0  0
 22 21  1  0  0  0  0
 23 22  1  0  0  0  0
 24 23  2  0  0  0  0
 25 23  1  0  0  0  0
 25 18  1  0  0  0  0
 26 25  1  0  0  0  0
 27 26  2  0  0  0  0
 28 26  1  0  0  0  0
 28 21  1  0  0  0  0
 29 28  1  0  0  0  0
 30 29  1  0  0  0  0
 31 15  2  0  0  0  0
 31  8  1  0  0  0  0
  1 32  1  0  0  0  0
  3 33  1  0  0  0  0
  3 34  1  0  0  0  0
  4 35  1  0  0  0  0
  4 36  1  0  0  0  0
  5 37  1  0  0  0  0
  5 38  1  0  0  0  0
  6 39  1  0  0  0  0
  6 40  1  0  0  0  0
  7 41  1  0  0  0  0
  7 42  1  0  0  0  0
  9 43  1  0  0  0  0
 10 44  1  0  0  0  0
 12 45  1  0  0  0  0
 12 46  1  0  0  0  0
 13 47  1  0  0  0  0
 13 48  1  0  0  0  0
 14 49  1  0  0  0  0
 14 50  1  0  0  0  0
 14 51  1  0  0  0  0
 19 52  1  0  0  0  0
 19 53  1  0  0  0  0
 19 54  1  0  0  0  0
 20 55  1  0  0  0  0
 20 56  1  0  0  0  0
 21 57  1  0  0  0  0
 22 58  1  0  0  0  0
 28 59  1  0  0  0  0
 29 60  1  0  0  0  0
 29 61  1  0  0  0  0
 30 62  1  0  0  0  0
 31 63  1  0  0  0  0
M  CHG  2   8   1  20   1
M  END
>  <energy>
-184.07640627452662

$$$$
