CC(C)(C)NC(=O)C1CC=[N+]2C3CC4C5CC3C5C4C12
                    3D

 45 49  0  0  0  0  0  0  0  0999 V2000
   -3.6572   -0.5535    1.3443 C   0  0  0  0  0  0  0  0  0  0  0  0
   -3.4390    0.6122    0.3636 C   0  0  0  0  0  0  0  0  0  0  0  0
   -4.6806    1.5126    0.4384 C   0  0  0  0  0  0  0  0  0  0  0  0
   -3.3145    0.0954   -1.0831 C   0  0  0  0  0  0  0  0  0  0  0  0
   -2.2175    1.3948    0.6674 N   0  0  0  0  0  0  0  0  0  0  0  0
   -0.9776    0.7923    0.6202 C   0  0  0  0  0  0  0  0  0  0  0  0
   -0.8229   -0.4247    0.7074 O   0  0  0  0  0  0  0  0  0  0  0  0
    0.1981    1.6855    0.2768 C   0  0  0  0  0  0  0  0  0  0  0  0
    0.0607    2.1311   -1.1955 C   0  0  0  0  0  0  0  0  0  0  0  0
    0.8391    1.0881   -1.9350 C   0  0  0  0  0  0  0  0  0  0  0  0
    1.6387    0.4854   -1.1415 N   0  3  0  0  0  0  0  0  0  0  0  0
    2.3701   -0.7955   -1.3743 C   0  0  0  0  0  0  0  0  0  0  0  0
    1.4665   -1.8613   -0.7311 C   0  0  0  0  0  0  0  0  0  0  0  0
    1.6747   -1.6824    0.7800 C   0  0  0  0  0  0  0  0  0  0  0  0
    3.1586   -1.9372    1.1766 C   0  0  0  0  0  0  0  0  0  0  0  0
    4.1422   -2.1579   -0.0024 C   0  0  0  0  0  0  0  0  0  0  0  0
    3.6842   -0.7679   -0.5542 C   0  0  0  0  0  0  0  0  0  0  0  0
    3.4048   -0.4353    0.9656 C   0  0  0  0  0  0  0  0  0  0  0  0
    1.8976   -0.1554    1.2035 C   0  0  0  0  0  0  0  0  0  0  0  0
    1.5596    0.9920    0.2566 C   0  0  0  0  0  0  0  0  0  0  0  0
   -4.6462   -1.0103    1.2047 H   0  0  0  0  0  0  0  0  0  0  0  0
   -3.5926   -0.2115    2.3849 H   0  0  0  0  0  0  0  0  0  0  0  0
   -2.9271   -1.3555    1.2024 H   0  0  0  0  0  0  0  0  0  0  0  0
   -5.5942    0.9402    0.2327 H   0  0  0  0  0  0  0  0  0  0  0  0
   -4.7894    1.9697    1.4268 H   0  0  0  0  0  0  0  0  0  0  0  0
   -4.6363    2.3241   -0.2958 H   0  0  0  0  0  0  0  0  0  0  0  0
   -4.1360   -0.5696   -1.3571 H   0  0  0  0  0  0  0  0  0  0  0  0
   -2.3815   -0.4550   -1.2453 H   0  0  0  0  0  0  0  0  0  0  0  0
   -3.2997    0.9364   -1.7880 H   0  0  0  0  0  0  0  0  0  0  0  0
   -2.2928    2.4032    0.5769 H   0  0  0  0  0  0  0  0  0  0  0  0
    0.1964    2.5372    0.9675 H   0  0  0  0  0  0  0  0  0  0  0  0
    0.5294    3.1030   -1.3782 H   0  0  0  0  0  0  0  0  0  0  0  0
   -0.9660    2.1351   -1.5688 H   0  0  0  0  0  0  0  0  0  0  0  0
    0.7382    0.8629   -3.0000 H   0  0  0  0  0  0  0  0  0  0  0  0
    2.5183   -0.9464   -2.4468 H   0  0  0  0  0  0  0  0  0  0  0  0
    0.4160   -1.7358   -1.0180 H   0  0  0  0  0  0  0  0  0  0  0  0
    1.7442   -2.8794   -1.0381 H   0  0  0  0  0  0  0  0  0  0  0  0
    0.9450   -2.2244    1.3888 H   0  0  0  0  0  0  0  0  0  0  0  0
    3.3748   -2.3424    2.1644 H   0  0  0  0  0  0  0  0  0  0  0  0
    5.1936   -2.1815    0.3137 H   0  0  0  0  0  0  0  0  0  0  0  0
    3.9543   -3.0252   -0.6418 H   0  0  0  0  0  0  0  0  0  0  0  0
    4.4810   -0.1739   -1.0231 H   0  0  0  0  0  0  0  0  0  0  0  0
    4.1761    0.0564    1.5588 H   0  0  0  0  0  0  0  0  0  0  0  0
    1.6755    0.0607    2.2568 H   0  0  0  0  0  0  0  0  0  0  0  0
    2.3336    1.7638    0.3390 H   0  0  0  0  0  0  0  0  0  0  0  0
  2  1  1  0  0  0  0
  3  2  1  0  0  0  0
  4  2  1  0  0  0  0
  5  2  1  0  0  0  0
  6  5  1  0  0  0  0
  7  6  2  0  0  0  0
  8  6  1  0  0  0  0
  9  8  1  0  0  0  0
 10  9  1  0  0  0  0
 11 10  2  0  0  0  0
 12 11  1  0  0  0  0
 13 12  1  0  0  0  0
 14 13  1  0  0  0  0
 15 14  1  0  0  0  0
 16 15  1  0  0  0  0
 17 16  1  0  0  0  0
 17 12  1  0  0  0  0
 18 17  1  0  0  0  0
 18 15  1  0  0  0  0
 19 18  1  0  0  0  0
 19 14  1  0  0  0  0
 20 19  1  0  0  0  0
 20  8  1  0  0  0  0
 20 11  1  0  0  0  0
  1 21  1  0  0  0  0
  1 22  1  0  0  0  0
  1 23  1  0  0  0  0
  3 24  1  0  0  0  0
  3 25  1  0  0  0  0
  3 26  1  0  0  0  0
  4 27  1  0  0  0  0
  4 28  1  0  0  0  0
  4 29  1  0  0  0  0
  5 30  1  0  0  0  0
  8 31  1  0  0  0  0
  9 32  1  0  0  0  0
  9 33  1  0  0  0  0
 10 34  1  0  0  0  0
 12 35  1  0  0  0  0
 13 36  1  0  0  0  0
 13 37  1  0  0  0  0
 14 38  1  0  0  0  0
 15 39  1  0  0  0  0
 16 40  1  0  0  0  0
 16 41  1  0  0  0  0
 17 42  1  0  0  0  0
 18 43  1  0  0  0  0
 19 44  1  0  0  0  0
 20 45  1  0  0  0  0
M  CHG  1  11   1
M  END
>  <energy>
41.250691165643062

$$$$
