CC#CC1C2=CC(=C(CC)c3c1[nH]c(C)c3C)N[N-][N+]2=O
                    3D

 39 41  0  0  0  0  0  0  0  0999 V2000
   -0.2331    4.2172    3.6456 C   0  0  0  0  0  0  0  0  0  0  0  0
    0.0669    3.2838    2.5633 C   0  0  0  0  0  0  0  0  0  0  0  0
    0.3477    2.5306    1.6692 C   0  0  0  0  0  0  0  0  0  0  0  0
    0.7281    1.6461    0.5417 C   0  0  0  0  0  0  0  0  0  0  0  0
    2.0635    0.9775    0.8770 C   0  0  0  0  0  0  0  0  0  0  0  0
    2.0601   -0.3628    1.0694 C   0  0  0  0  0  0  0  0  0  0  0  0
    2.0798   -1.0228   -0.2484 C   0  0  0  0  0  0  0  0  0  0  0  0
    0.9090   -1.1374   -0.9391 C   0  0  0  0  0  0  0  0  0  0  0  0
    0.8932   -1.4905   -2.4106 C   0  0  0  0  0  0  0  0  0  0  0  0
    1.1468   -2.9692   -2.6761 C   0  0  0  0  0  0  0  0  0  0  0  0
   -0.3417   -0.5910   -0.4311 C   0  0  0  0  0  0  0  0  0  0  0  0
   -0.4085    0.6492    0.2135 C   0  0  0  0  0  0  0  0  0  0  0  0
   -1.7209    0.8626    0.5419 N   0  0  0  0  0  0  0  0  0  0  0  0
   -2.4872   -0.2217    0.1829 C   0  0  0  0  0  0  0  0  0  0  0  0
   -3.9391   -0.2486    0.4885 C   0  0  0  0  0  0  0  0  0  0  0  0
   -1.6582   -1.1482   -0.4423 C   0  0  0  0  0  0  0  0  0  0  0  0
   -2.0594   -2.4731   -0.9872 C   0  0  0  0  0  0  0  0  0  0  0  0
    3.3410   -0.9474   -0.8343 N   0  0  0  0  0  0  0  0  0  0  0  0
    3.7855    0.5294   -1.0078 N   0  5  0  0  0  0  0  0  0  0  0  0
    3.1011    1.4391   -0.0514 N   0  3  0  0  0  0  0  0  0  0  0  0
    3.3905    2.6231   -0.0174 O   0  0  0  0  0  0  0  0  0  0  0  0
   -0.4167    5.2202    3.2498 H   0  0  0  0  0  0  0  0  0  0  0  0
    0.5998    4.2767    4.3533 H   0  0  0  0  0  0  0  0  0  0  0  0
   -1.1262    3.9004    4.1917 H   0  0  0  0  0  0  0  0  0  0  0  0
    0.8261    2.2667   -0.3607 H   0  0  0  0  0  0  0  0  0  0  0  0
    1.3089   -0.8056    1.7221 H   0  0  0  0  0  0  0  0  0  0  0  0
    1.6525   -0.9010   -2.9435 H   0  0  0  0  0  0  0  0  0  0  0  0
   -0.0579   -1.2030   -2.8767 H   0  0  0  0  0  0  0  0  0  0  0  0
    1.0625   -3.1749   -3.7490 H   0  0  0  0  0  0  0  0  0  0  0  0
    2.1522   -3.2653   -2.3624 H   0  0  0  0  0  0  0  0  0  0  0  0
    0.4288   -3.6098   -2.1558 H   0  0  0  0  0  0  0  0  0  0  0  0
   -2.0596    1.6874    1.0199 H   0  0  0  0  0  0  0  0  0  0  0  0
   -4.4931    0.3421   -0.2462 H   0  0  0  0  0  0  0  0  0  0  0  0
   -4.3370   -1.2666    0.4769 H   0  0  0  0  0  0  0  0  0  0  0  0
   -4.1318    0.1665    1.4827 H   0  0  0  0  0  0  0  0  0  0  0  0
   -1.3610   -3.2494   -0.6612 H   0  0  0  0  0  0  0  0  0  0  0  0
   -2.0764   -2.4470   -2.0809 H   0  0  0  0  0  0  0  0  0  0  0  0
   -3.0544   -2.7710   -0.6451 H   0  0  0  0  0  0  0  0  0  0  0  0
    4.0182   -1.3125   -0.1622 H   0  0  0  0  0  0  0  0  0  0  0  0
  2  1  1  0  0  0  0
  3  2  3  0  0  0  0
  4  3  1  0  0  0  0
  5  4  1  0  0  0  0
  6  5  2  0  0  0  0
  7  6  1  0  0  0  0
  8  7  2  0  0  0  0
  9  8  1  0  0  0  0
 10  9  1  0  0  0  0
 11  8  1  0  0  0  0
 12 11  2  0  0  0  0
 12  4  1  0  0  0  0
 13 12  1  0  0  0  0
 14 13  1  0  0  0  0
 15 14  1  0  0  0  0
 16 14  2  0  0  0  0
 16 11  1  0  0  0  0
 17 16  1  0  0  0  0
 18  7  1  0  0  0  0
 19 18  1  0  0  0  0
 20 19  1  0  0  0  0
 20  5  1  0  0  0  0
 21 20  2  0  0  0  0
  1 22  1  0  0  0  0
  1 23  1  0  0  0  0
  1 24  1  0  0  0  0
  4 25  1  0  0  0  0
  6 26  1  0  0  0  0
  9 27  1  0  0  0  0
  9 28  1  0  0  0  0
 10 29  1  0  0  0  0
 10 30  1  0  0  0  0
 10 31  1  0  0  0  0
 13 32  1  0  0  0  0
 15 33  1  0  0  0  0
 15 34  1  0  0  0  0
 15 35  1  0  0  0  0
 17 36  1  0  0  0  0
 17 37  1  0  0  0  0
 17 38  1  0  0  0  0
 18 39  1  0  0  0  0
M  CHG  2  19  -1  20   1
M  END
>  <energy>
113.08960487134541

$$$$
