[N-]=[N+]=CCCCCCCCCC12C3CC4C5CC(C(O)C51)C2C43
                    3D

 53 57  0  0  0  0  0  0  0  0999 V2000
   -1.5404    3.6342    1.3623 N   0  5  0  0  0  0  0  0  0  0  0  0
   -2.5468    3.3007    0.9370 N   0  3  0  0  0  0  0  0  0  0  0  0
   -3.7073    2.9191    0.4447 C   0  0  0  0  0  0  0  0  0  0  0  0
   -4.5466    1.9526    1.2264 C   0  0  0  0  0  0  0  0  0  0  0  0
   -4.7284    0.6442    0.4590 C   0  0  0  0  0  0  0  0  0  0  0  0
   -3.4170   -0.1354    0.3450 C   0  0  0  0  0  0  0  0  0  0  0  0
   -3.5942   -1.4453   -0.4292 C   0  0  0  0  0  0  0  0  0  0  0  0
   -2.2460   -2.0649   -0.8085 C   0  0  0  0  0  0  0  0  0  0  0  0
   -1.6034   -1.3766   -2.0250 C   0  0  0  0  0  0  0  0  0  0  0  0
   -0.0822   -1.2479   -1.8984 C   0  0  0  0  0  0  0  0  0  0  0  0
    0.3074   -0.0758   -0.9922 C   0  0  0  0  0  0  0  0  0  0  0  0
    1.7579   -0.1113   -0.5012 C   0  0  0  0  0  0  0  0  0  0  0  0
    2.7716   -0.1704   -1.6809 C   0  0  0  0  0  0  0  0  0  0  0  0
    3.7673    0.9908   -1.6981 C   0  0  0  0  0  0  0  0  0  0  0  0
    4.3170    0.4345   -0.3718 C   0  0  0  0  0  0  0  0  0  0  0  0
    3.6118    0.9142    0.8959 C   0  0  0  0  0  0  0  0  0  0  0  0
    3.8675   -0.2264    1.9120 C   0  0  0  0  0  0  0  0  0  0  0  0
    2.5924   -1.0411    1.6758 C   0  0  0  0  0  0  0  0  0  0  0  0
    1.5835    0.0823    1.9102 C   0  0  0  0  0  0  0  0  0  0  0  0
    0.2502   -0.3583    1.9319 O   0  0  0  0  0  0  0  0  0  0  0  0
    2.0414    0.8748    0.6761 C   0  0  0  0  0  0  0  0  0  0  0  0
    2.4819   -1.3496    0.1402 C   0  0  0  0  0  0  0  0  0  0  0  0
    3.7155   -0.9547   -0.7624 C   0  0  0  0  0  0  0  0  0  0  0  0
   -4.0577    3.2924   -0.5286 H   0  0  0  0  0  0  0  0  0  0  0  0
   -5.5244    2.4230    1.3787 H   0  0  0  0  0  0  0  0  0  0  0  0
   -4.1015    1.7653    2.2100 H   0  0  0  0  0  0  0  0  0  0  0  0
   -5.1170    0.8559   -0.5446 H   0  0  0  0  0  0  0  0  0  0  0  0
   -5.4731    0.0285    0.9752 H   0  0  0  0  0  0  0  0  0  0  0  0
   -3.0335   -0.3611    1.3484 H   0  0  0  0  0  0  0  0  0  0  0  0
   -2.6705    0.4928   -0.1502 H   0  0  0  0  0  0  0  0  0  0  0  0
   -4.1468   -2.1527    0.2010 H   0  0  0  0  0  0  0  0  0  0  0  0
   -4.1938   -1.2850   -1.3340 H   0  0  0  0  0  0  0  0  0  0  0  0
   -1.5797   -2.0605    0.0623 H   0  0  0  0  0  0  0  0  0  0  0  0
   -2.4061   -3.1199   -1.0641 H   0  0  0  0  0  0  0  0  0  0  0  0
   -2.0384   -0.3867   -2.2088 H   0  0  0  0  0  0  0  0  0  0  0  0
   -1.8314   -1.9776   -2.9142 H   0  0  0  0  0  0  0  0  0  0  0  0
    0.3381   -2.1954   -1.5480 H   0  0  0  0  0  0  0  0  0  0  0  0
    0.3280   -1.0696   -2.8978 H   0  0  0  0  0  0  0  0  0  0  0  0
    0.1412    0.8611   -1.5404 H   0  0  0  0  0  0  0  0  0  0  0  0
   -0.3914   -0.0402   -0.1593 H   0  0  0  0  0  0  0  0  0  0  0  0
    2.5061   -0.6520   -2.6201 H   0  0  0  0  0  0  0  0  0  0  0  0
    4.4821    0.9457   -2.5286 H   0  0  0  0  0  0  0  0  0  0  0  0
    3.3362    1.9952   -1.6670 H   0  0  0  0  0  0  0  0  0  0  0  0
    5.4101    0.4592   -0.3005 H   0  0  0  0  0  0  0  0  0  0  0  0
    3.9718    1.8835    1.2521 H   0  0  0  0  0  0  0  0  0  0  0  0
    3.9134    0.1595    2.9375 H   0  0  0  0  0  0  0  0  0  0  0  0
    4.7829   -0.7997    1.7266 H   0  0  0  0  0  0  0  0  0  0  0  0
    2.4742   -1.9251    2.3063 H   0  0  0  0  0  0  0  0  0  0  0  0
    1.7571    0.6458    2.8349 H   0  0  0  0  0  0  0  0  0  0  0  0
    0.0951   -0.7867    2.7908 H   0  0  0  0  0  0  0  0  0  0  0  0
    1.5771    1.8541    0.5386 H   0  0  0  0  0  0  0  0  0  0  0  0
    2.0451   -2.3261   -0.0902 H   0  0  0  0  0  0  0  0  0  0  0  0
    4.3537   -1.7134   -1.2150 H   0  0  0  0  0  0  0  0  0  0  0  0
  2  1  2  0  0  0  0
  3  2  2  0  0  0  0
  4  3  1  0  0  0  0
  5  4  1  0  0  0  0
  6  5  1  0  0  0  0
  7  6  1  0  0  0  0
  8  7  1  0  0  0  0
  9  8  1  0  0  0  0
 10  9  1  0  0  0  0
 11 10  1  0  0  0  0
 12 11  1  0  0  0  0
 13 12  1  0  0  0  0
 14 13  1  0  0  0  0
 15 14  1  0  0  0  0
 16 15  1  0  0  0  0
 17 16  1  0  0  0  0
 18 17  1  0  0  0  0
 19 18  1  0  0  0  0
 20 19  1  0  0  0  0
 21 19  1  0  0  0  0
 21 16  1  0  0  0  0
 21 12  1  0  0  0  0
 22 18  1  0  0  0  0
 22 12  1  0  0  0  0
 23 22  1  0  0  0  0
 23 15  1  0  0  0  0
 23 13  1  0  0  0  0
  3 24  1  0  0  0  0
  4 25  1  0  0  0  0
  4 26  1  0  0  0  0
  5 27  1  0  0  0  0
  5 28  1  0  0  0  0
  6 29  1  0  0  0  0
  6 30  1  0  0  0  0
  7 31  1  0  0  0  0
  7 32  1  0  0  0  0
  8 33  1  0  0  0  0
  8 34  1  0  0  0  0
  9 35  1  0  0  0  0
  9 36  1  0  0  0  0
 10 37  1  0  0  0  0
 10 38  1  0  0  0  0
 11 39  1  0  0  0  0
 11 40  1  0  0  0  0
 13 41  1  0  0  0  0
 14 42  1  0  0  0  0
 14 43  1  0  0  0  0
 15 44  1  0  0  0  0
 16 45  1  0  0  0  0
 17 46  1  0  0  0  0
 17 47  1  0  0  0  0
 18 48  1  0  0  0  0
 19 49  1  0  0  0  0
 20 50  1  0  0  0  0
 21 51  1  0  0  0  0
 22 52  1  0  0  0  0
 23 53  1  0  0  0  0
M  CHG  2   1  -1   2   1
M  END
>  <energy>
77.724910298414372

$$$$
