C=C1C(O)OC2OC3(C)C(C(=C)C)OC(O)(C(C)C)C4(O)C(O)C5(C(C)C)C3C(O)(C(O)C12)C54C
                    3D

 75 79  0  0  0  0  0  0  0  0999 V2000
   -4.0660    0.3805   -2.8814 C   0  0  0  0  0  0  0  0  0  0  0  0
   -3.8002   -0.3205   -1.7669 C   0  0  0  0  0  0  0  0  0  0  0  0
   -4.8358   -0.7688   -0.7631 C   0  0  0  0  0  0  0  0  0  0  0  0
   -5.6763    0.3058   -0.4138 O   0  0  0  0  0  0  0  0  0  0  0  0
   -4.1162   -1.1834    0.3995 O   0  0  0  0  0  0  0  0  0  0  0  0
   -2.8334   -0.5428    0.3035 C   0  0  0  0  0  0  0  0  0  0  0  0
   -1.8939   -1.1948    1.1219 O   0  0  0  0  0  0  0  0  0  0  0  0
   -0.7138   -0.4811    1.5663 C   0  0  0  0  0  0  0  0  0  0  0  0
   -0.9656   -0.1747    3.0569 C   0  0  0  0  0  0  0  0  0  0  0  0
    0.4947   -1.4678    1.4643 C   0  0  0  0  0  0  0  0  0  0  0  0
    0.2383   -2.9149    1.9012 C   0  0  0  0  0  0  0  0  0  0  0  0
    0.8313   -3.4388    2.9876 C   0  0  0  0  0  0  0  0  0  0  0  0
   -0.6569   -3.7713    1.0417 C   0  0  0  0  0  0  0  0  0  0  0  0
    0.9466   -1.5630    0.1163 O   0  0  0  0  0  0  0  0  0  0  0  0
    2.2158   -1.0103   -0.1807 C   0  0  0  0  0  0  0  0  0  0  0  0
    3.1572   -1.3045    0.8560 O   0  0  0  0  0  0  0  0  0  0  0  0
    2.7561   -1.7127   -1.4839 C   0  0  0  0  0  0  0  0  0  0  0  0
    1.9225   -1.4566   -2.7414 C   0  0  0  0  0  0  0  0  0  0  0  0
    2.8776   -3.2454   -1.3322 C   0  0  0  0  0  0  0  0  0  0  0  0
    2.1475    0.5573   -0.3198 C   0  0  0  0  0  0  0  0  0  0  0  0
    3.4092    0.9812   -0.9721 O   0  0  0  0  0  0  0  0  0  0  0  0
    2.0618    1.2946    1.0934 C   0  0  0  0  0  0  0  0  0  0  0  0
    3.1558    2.2108    1.3426 O   0  0  0  0  0  0  0  0  0  0  0  0
    0.7106    1.9230    0.7208 C   0  0  0  0  0  0  0  0  0  0  0  0
    0.3333    3.3455    1.1890 C   0  0  0  0  0  0  0  0  0  0  0  0
    1.1875    4.4749    0.6137 C   0  0  0  0  0  0  0  0  0  0  0  0
    0.3535    3.4192    2.7190 C   0  0  0  0  0  0  0  0  0  0  0  0
   -0.5063    0.8812    0.8275 C   0  0  0  0  0  0  0  0  0  0  0  0
   -0.6196    0.9903   -0.7352 C   0  0  0  0  0  0  0  0  0  0  0  0
   -1.5465    2.0710   -1.0869 O   0  0  0  0  0  0  0  0  0  0  0  0
   -1.0872   -0.2025   -1.5669 C   0  0  0  0  0  0  0  0  0  0  0  0
   -1.0138    0.1530   -2.9577 O   0  0  0  0  0  0  0  0  0  0  0  0
   -2.4804   -0.7266   -1.1705 C   0  0  0  0  0  0  0  0  0  0  0  0
    0.8936    1.4749   -0.7819 C   0  0  0  0  0  0  0  0  0  0  0  0
    1.2119    2.4483   -1.9049 C   0  0  0  0  0  0  0  0  0  0  0  0
   -3.2949    0.7357   -3.5546 H   0  0  0  0  0  0  0  0  0  0  0  0
   -5.0884    0.6403   -3.1377 H   0  0  0  0  0  0  0  0  0  0  0  0
   -5.4240   -1.6142   -1.1319 H   0  0  0  0  0  0  0  0  0  0  0  0
   -6.2797   -0.0710    0.2488 H   0  0  0  0  0  0  0  0  0  0  0  0
   -3.0020    0.4957    0.6140 H   0  0  0  0  0  0  0  0  0  0  0  0
   -0.1103    0.3373    3.5096 H   0  0  0  0  0  0  0  0  0  0  0  0
   -1.1697   -1.0861    3.6281 H   0  0  0  0  0  0  0  0  0  0  0  0
   -1.8480    0.4632    3.1875 H   0  0  0  0  0  0  0  0  0  0  0  0
    1.2854   -1.0982    2.1164 H   0  0  0  0  0  0  0  0  0  0  0  0
    0.6571   -4.4700    3.2815 H   0  0  0  0  0  0  0  0  0  0  0  0
    1.4862   -2.8522    3.6244 H   0  0  0  0  0  0  0  0  0  0  0  0
   -0.5947   -3.4923   -0.0149 H   0  0  0  0  0  0  0  0  0  0  0  0
   -1.6977   -3.6807    1.3633 H   0  0  0  0  0  0  0  0  0  0  0  0
   -0.3761   -4.8284    1.0980 H   0  0  0  0  0  0  0  0  0  0  0  0
    3.2032   -2.2705    0.9376 H   0  0  0  0  0  0  0  0  0  0  0  0
    3.7753   -1.3518   -1.6742 H   0  0  0  0  0  0  0  0  0  0  0  0
    0.9781   -2.0064   -2.7085 H   0  0  0  0  0  0  0  0  0  0  0  0
    2.4579   -1.8059   -3.6318 H   0  0  0  0  0  0  0  0  0  0  0  0
    1.7121   -0.3967   -2.8902 H   0  0  0  0  0  0  0  0  0  0  0  0
    3.5839   -3.5284   -0.5475 H   0  0  0  0  0  0  0  0  0  0  0  0
    3.2471   -3.6938   -2.2613 H   0  0  0  0  0  0  0  0  0  0  0  0
    1.9099   -3.7040   -1.1055 H   0  0  0  0  0  0  0  0  0  0  0  0
    3.2540    0.8984   -1.9306 H   0  0  0  0  0  0  0  0  0  0  0  0
    1.9888    0.6718    1.9798 H   0  0  0  0  0  0  0  0  0  0  0  0
    3.8964    1.8116    0.8456 H   0  0  0  0  0  0  0  0  0  0  0  0
   -0.6937    3.5630    0.8743 H   0  0  0  0  0  0  0  0  0  0  0  0
    1.0020    4.6120   -0.4533 H   0  0  0  0  0  0  0  0  0  0  0  0
    0.9302    5.4289    1.0896 H   0  0  0  0  0  0  0  0  0  0  0  0
    2.2568    4.3209    0.7534 H   0  0  0  0  0  0  0  0  0  0  0  0
    0.0085    4.4002    3.0666 H   0  0  0  0  0  0  0  0  0  0  0  0
   -0.3052    2.6670    3.1604 H   0  0  0  0  0  0  0  0  0  0  0  0
    1.3599    3.2590    3.1161 H   0  0  0  0  0  0  0  0  0  0  0  0
   -1.3377    1.4660    1.2634 H   0  0  0  0  0  0  0  0  0  0  0  0
   -1.5406    2.0792   -2.0644 H   0  0  0  0  0  0  0  0  0  0  0  0
   -0.4066   -1.0333   -1.4554 H   0  0  0  0  0  0  0  0  0  0  0  0
   -1.3929   -0.5945   -3.4566 H   0  0  0  0  0  0  0  0  0  0  0  0
   -2.4233   -1.8095   -1.3730 H   0  0  0  0  0  0  0  0  0  0  0  0
    2.1389    3.0001   -1.7192 H   0  0  0  0  0  0  0  0  0  0  0  0
    0.4249    3.1909   -2.0574 H   0  0  0  0  0  0  0  0  0  0  0  0
    1.3360    1.9156   -2.8524 H   0  0  0  0  0  0  0  0  0  0  0  0
  2  1  2  0  0  0  0
  3  2  1  0  0  0  0
  4  3  1  0  0  0  0
  5  3  1  0  0  0  0
  6  5  1  0  0  0  0
  7  6  1  0  0  0  0
  8  7  1  0  0  0  0
  9  8  1  0  0  0  0
 10  8  1  0  0  0  0
 11 10  1  0  0  0  0
 12 11  2  0  0  0  0
 13 11  1  0  0  0  0
 14 10  1  0  0  0  0
 15 14  1  0  0  0  0
 16 15  1  0  0  0  0
 17 15  1  0  0  0  0
 18 17  1  0  0  0  0
 19 17  1  0  0  0  0
 20 15  1  0  0  0  0
 21 20  1  0  0  0  0
 22 20  1  0  0  0  0
 23 22  1  0  0  0  0
 24 22  1  0  0  0  0
 25 24  1  0  0  0  0
 26 25  1  0  0  0  0
 27 25  1  0  0  0  0
 28 24  1  0  0  0  0
 28  8  1  0  0  0  0
 29 28  1  0  0  0  0
 30 29  1  0  0  0  0
 31 29  1  0  0  0  0
 32 31  1  0  0  0  0
 33 31  1  0  0  0  0
 33  2  1  0  0  0  0
 33  6  1  0  0  0  0
 34 29  1  0  0  0  0
 34 24  1  0  0  0  0
 34 20  1  0  0  0  0
 35 34  1  0  0  0  0
  1 36  1  0  0  0  0
  1 37  1  0  0  0  0
  3 38  1  0  0  0  0
  4 39  1  0  0  0  0
  6 40  1  0  0  0  0
  9 41  1  0  0  0  0
  9 42  1  0  0  0  0
  9 43  1  0  0  0  0
 10 44  1  0  0  0  0
 12 45  1  0  0  0  0
 12 46  1  0  0  0  0
 13 47  1  0  0  0  0
 13 48  1  0  0  0  0
 13 49  1  0  0  0  0
 16 50  1  0  0  0  0
 17 51  1  0  0  0  0
 18 52  1  0  0  0  0
 18 53  1  0  0  0  0
 18 54  1  0  0  0  0
 19 55  1  0  0  0  0
 19 56  1  0  0  0  0
 19 57  1  0  0  0  0
 21 58  1  0  0  0  0
 22 59  1  0  0  0  0
 23 60  1  0  0  0  0
 25 61  1  0  0  0  0
 26 62  1  0  0  0  0
 26 63  1  0  0  0  0
 26 64  1  0  0  0  0
 27 65  1  0  0  0  0
 27 66  1  0  0  0  0
 27 67  1  0  0  0  0
 28 68  1  0  0  0  0
 30 69  1  0  0  0  0
 31 70  1  0  0  0  0
 32 71  1  0  0  0  0
 33 72  1  0  0  0  0
 35 73  1  0  0  0  0
 35 74  1  0  0  0  0
 35 75  1  0  0  0  0
M  END
>  <energy>
155.41798931914462

$$$$
