CC1=C2NC34CC(C1)C(C3)C(C)(C)C2CCC4CCCC(C)O
                    3D

 58 61  0  0  0  0  0  0  0  0999 V2000
   -4.6848    0.1177    0.2594 C   0  0  0  0  0  0  0  0  0  0  0  0
   -3.2602    0.1203   -0.2078 C   0  0  0  0  0  0  0  0  0  0  0  0
   -2.2044    0.3665    0.5899 C   0  0  0  0  0  0  0  0  0  0  0  0
   -1.0780    0.8595    0.0037 N   0  0  0  0  0  0  0  0  0  0  0  0
    0.0460    0.0264   -0.4551 C   0  0  0  0  0  0  0  0  0  0  0  0
   -0.3666   -0.2156   -1.8993 C   0  0  0  0  0  0  0  0  0  0  0  0
   -1.5700   -1.2555   -1.6320 C   0  0  0  0  0  0  0  0  0  0  0  0
   -2.9583   -0.5374   -1.5488 C   0  0  0  0  0  0  0  0  0  0  0  0
   -1.1118   -2.1012   -0.3363 C   0  0  0  0  0  0  0  0  0  0  0  0
    0.2359   -1.4793   -0.1247 C   0  0  0  0  0  0  0  0  0  0  0  0
   -1.7883   -2.0558    1.1101 C   0  0  0  0  0  0  0  0  0  0  0  0
   -3.1941   -2.7123    1.0177 C   0  0  0  0  0  0  0  0  0  0  0  0
   -1.0481   -2.9905    2.1182 C   0  0  0  0  0  0  0  0  0  0  0  0
   -1.8244   -0.5700    1.7123 C   0  0  0  0  0  0  0  0  0  0  0  0
   -0.5252    0.0414    2.4628 C   0  0  0  0  0  0  0  0  0  0  0  0
    0.9124    0.4487    1.8437 C   0  0  0  0  0  0  0  0  0  0  0  0
    1.1933    0.6902    0.2764 C   0  0  0  0  0  0  0  0  0  0  0  0
    1.3737    2.1879   -0.0494 C   0  0  0  0  0  0  0  0  0  0  0  0
    2.7762    2.7141    0.2967 C   0  0  0  0  0  0  0  0  0  0  0  0
    3.6012    3.0722   -0.9450 C   0  0  0  0  0  0  0  0  0  0  0  0
    3.9411    1.9001   -1.8692 C   0  0  0  0  0  0  0  0  0  0  0  0
    4.9258    0.9166   -1.2526 C   0  0  0  0  0  0  0  0  0  0  0  0
    4.5266    2.4476   -3.0511 O   0  0  0  0  0  0  0  0  0  0  0  0
   -5.1724   -0.8482    0.1101 H   0  0  0  0  0  0  0  0  0  0  0  0
   -4.7651    0.3808    1.3187 H   0  0  0  0  0  0  0  0  0  0  0  0
   -5.2500    0.8645   -0.3098 H   0  0  0  0  0  0  0  0  0  0  0  0
   -1.3015    1.6046   -0.6575 H   0  0  0  0  0  0  0  0  0  0  0  0
   -0.7034    0.6699   -2.4497 H   0  0  0  0  0  0  0  0  0  0  0  0
    0.4250   -0.6882   -2.4947 H   0  0  0  0  0  0  0  0  0  0  0  0
   -1.5985   -1.9284   -2.4993 H   0  0  0  0  0  0  0  0  0  0  0  0
   -3.0512    0.2033   -2.3520 H   0  0  0  0  0  0  0  0  0  0  0  0
   -3.7239   -1.2972   -1.7495 H   0  0  0  0  0  0  0  0  0  0  0  0
   -1.0130   -3.1519   -0.6336 H   0  0  0  0  0  0  0  0  0  0  0  0
    0.9658   -1.9283   -0.8191 H   0  0  0  0  0  0  0  0  0  0  0  0
    0.6845   -1.7101    0.8354 H   0  0  0  0  0  0  0  0  0  0  0  0
   -3.7245   -2.4860    0.0962 H   0  0  0  0  0  0  0  0  0  0  0  0
   -3.8216   -2.4250    1.8688 H   0  0  0  0  0  0  0  0  0  0  0  0
   -3.1187   -3.8072    1.0327 H   0  0  0  0  0  0  0  0  0  0  0  0
   -0.0622   -2.6356    2.4211 H   0  0  0  0  0  0  0  0  0  0  0  0
   -1.6341   -3.1036    3.0391 H   0  0  0  0  0  0  0  0  0  0  0  0
   -0.9089   -3.9906    1.6902 H   0  0  0  0  0  0  0  0  0  0  0  0
   -2.6158   -0.5384    2.4734 H   0  0  0  0  0  0  0  0  0  0  0  0
   -0.8894    0.9766    2.9197 H   0  0  0  0  0  0  0  0  0  0  0  0
   -0.3157   -0.6025    3.3263 H   0  0  0  0  0  0  0  0  0  0  0  0
    1.6124   -0.3374    2.1636 H   0  0  0  0  0  0  0  0  0  0  0  0
    1.2560    1.3322    2.3992 H   0  0  0  0  0  0  0  0  0  0  0  0
    2.1312    0.1817    0.0180 H   0  0  0  0  0  0  0  0  0  0  0  0
    1.1529    2.3714   -1.1072 H   0  0  0  0  0  0  0  0  0  0  0  0
    0.6425    2.7762    0.5191 H   0  0  0  0  0  0  0  0  0  0  0  0
    2.6602    3.6343    0.8851 H   0  0  0  0  0  0  0  0  0  0  0  0
    3.3259    2.0185    0.9414 H   0  0  0  0  0  0  0  0  0  0  0  0
    4.5301    3.5631   -0.6240 H   0  0  0  0  0  0  0  0  0  0  0  0
    3.0616    3.8363   -1.5223 H   0  0  0  0  0  0  0  0  0  0  0  0
    3.0326    1.3726   -2.1750 H   0  0  0  0  0  0  0  0  0  0  0  0
    4.5154    0.4227   -0.3683 H   0  0  0  0  0  0  0  0  0  0  0  0
    5.8564    1.4208   -0.9719 H   0  0  0  0  0  0  0  0  0  0  0  0
    5.2013    0.1461   -1.9813 H   0  0  0  0  0  0  0  0  0  0  0  0
    4.6982    1.7112   -3.6626 H   0  0  0  0  0  0  0  0  0  0  0  0
  2  1  1  0  0  0  0
  3  2  2  0  0  0  0
  4  3  1  0  0  0  0
  5  4  1  0  0  0  0
  6  5  1  0  0  0  0
  7  6  1  0  0  0  0
  8  7  1  0  0  0  0
  8  2  1  0  0  0  0
  9  7  1  0  0  0  0
 10  9  1  0  0  0  0
 10  5  1  0  0  0  0
 11  9  1  0  0  0  0
 12 11  1  0  0  0  0
 13 11  1  0  0  0  0
 14 11  1  0  0  0  0
 14  3  1  0  0  0  0
 15 14  1  0  0  0  0
 16 15  1  0  0  0  0
 17 16  1  0  0  0  0
 17  5  1  0  0  0  0
 18 17  1  0  0  0  0
 19 18  1  0  0  0  0
 20 19  1  0  0  0  0
 21 20  1  0  0  0  0
 22 21  1  0  0  0  0
 23 21  1  0  0  0  0
  1 24  1  0  0  0  0
  1 25  1  0  0  0  0
  1 26  1  0  0  0  0
  4 27  1  0  0  0  0
  6 28  1  0  0  0  0
  6 29  1  0  0  0  0
  7 30  1  0  0  0  0
  8 31  1  0  0  0  0
  8 32  1  0  0  0  0
  9 33  1  0  0  0  0
 10 34  1  0  0  0  0
 10 35  1  0  0  0  0
 12 36  1  0  0  0  0
 12 37  1  0  0  0  0
 12 38  1  0  0  0  0
 13 39  1  0  0  0  0
 13 40  1  0  0  0  0
 13 41  1  0  0  0  0
 14 42  1  0  0  0  0
 15 43  1  0  0  0  0
 15 44  1  0  0  0  0
 16 45  1  0  0  0  0
 16 46  1  0  0  0  0
 17 47  1  0  0  0  0
 18 48  1  0  0  0  0
 18 49  1  0  0  0  0
 19 50  1  0  0  0  0
 19 51  1  0  0  0  0
 20 52  1  0  0  0  0
 20 53  1  0  0  0  0
 21 54  1  0  0  0  0
 22 55  1  0  0  0  0
 22 56  1  0  0  0  0
 22 57  1  0  0  0  0
 23 58  1  0  0  0  0
M  END
>  <energy>
198.97667798556381

$$$$
