CC1OC2OC3(O)CCC4CC(C1(C)O)C21C(F)=CC1(C)C43C
                    3D

 48 52  0  0  0  0  0  0  0  0999 V2000
   -4.0970    0.3845    1.1801 C   0  0  0  0  0  0  0  0  0  0  0  0
   -2.6277    0.3986    0.7563 C   0  0  0  0  0  0  0  0  0  0  0  0
   -1.9089   -0.2278    1.8255 O   0  0  0  0  0  0  0  0  0  0  0  0
   -0.4994   -0.3209    1.6272 C   0  0  0  0  0  0  0  0  0  0  0  0
    0.1179    0.9495    1.6014 O   0  0  0  0  0  0  0  0  0  0  0  0
    1.5270    0.8753    1.4068 C   0  0  0  0  0  0  0  0  0  0  0  0
    2.1901    0.4945    2.5911 O   0  0  0  0  0  0  0  0  0  0  0  0
    1.9200    2.3249    1.0579 C   0  0  0  0  0  0  0  0  0  0  0  0
    1.7767    2.4379   -0.4676 C   0  0  0  0  0  0  0  0  0  0  0  0
    1.4013    1.0289   -0.9718 C   0  0  0  0  0  0  0  0  0  0  0  0
   -0.1487    0.9131   -1.2082 C   0  0  0  0  0  0  0  0  0  0  0  0
   -0.8524   -0.4593   -0.8918 C   0  0  0  0  0  0  0  0  0  0  0  0
   -2.3727   -0.3070   -0.6130 C   0  0  0  0  0  0  0  0  0  0  0  0
   -3.0823    0.4270   -1.7600 C   0  0  0  0  0  0  0  0  0  0  0  0
   -2.9313   -1.6302   -0.5720 O   0  0  0  0  0  0  0  0  0  0  0  0
   -0.1817   -1.0911    0.3313 C   0  0  0  0  0  0  0  0  0  0  0  0
   -0.0801   -2.5947    0.6436 C   0  0  0  0  0  0  0  0  0  0  0  0
   -0.9535   -3.5312    0.9059 F   0  0  0  0  0  0  0  0  0  0  0  0
    1.2444   -2.4340    0.9457 C   0  0  0  0  0  0  0  0  0  0  0  0
    1.3213   -1.2910   -0.0760 C   0  0  0  0  0  0  0  0  0  0  0  0
    1.7098   -1.9191   -1.4571 C   0  0  0  0  0  0  0  0  0  0  0  0
    1.9671    0.0853    0.1390 C   0  0  0  0  0  0  0  0  0  0  0  0
    3.5044   -0.0544    0.0709 C   0  0  0  0  0  0  0  0  0  0  0  0
   -4.7338    0.9172    0.4691 H   0  0  0  0  0  0  0  0  0  0  0  0
   -4.4704   -0.6389    1.2933 H   0  0  0  0  0  0  0  0  0  0  0  0
   -4.2110    0.8631    2.1595 H   0  0  0  0  0  0  0  0  0  0  0  0
   -2.3132    1.4476    0.7104 H   0  0  0  0  0  0  0  0  0  0  0  0
   -0.1266   -0.8397    2.5188 H   0  0  0  0  0  0  0  0  0  0  0  0
    2.1871   -0.4735    2.6441 H   0  0  0  0  0  0  0  0  0  0  0  0
    1.2740    3.0573    1.5567 H   0  0  0  0  0  0  0  0  0  0  0  0
    2.9475    2.5553    1.3629 H   0  0  0  0  0  0  0  0  0  0  0  0
    2.7381    2.7461   -0.8961 H   0  0  0  0  0  0  0  0  0  0  0  0
    1.0447    3.2005   -0.7532 H   0  0  0  0  0  0  0  0  0  0  0  0
    1.8992    0.8586   -1.9335 H   0  0  0  0  0  0  0  0  0  0  0  0
   -0.3448    1.1640   -2.2595 H   0  0  0  0  0  0  0  0  0  0  0  0
   -0.6450    1.7121   -0.6474 H   0  0  0  0  0  0  0  0  0  0  0  0
   -0.7334   -1.1121   -1.7662 H   0  0  0  0  0  0  0  0  0  0  0  0
   -4.1703    0.3252   -1.6849 H   0  0  0  0  0  0  0  0  0  0  0  0
   -2.8360    1.4929   -1.7831 H   0  0  0  0  0  0  0  0  0  0  0  0
   -2.8078   -0.0106   -2.7270 H   0  0  0  0  0  0  0  0  0  0  0  0
   -2.7936   -2.0600   -1.4327 H   0  0  0  0  0  0  0  0  0  0  0  0
    1.9856   -3.0931    1.3889 H   0  0  0  0  0  0  0  0  0  0  0  0
    2.7496   -2.2643   -1.4443 H   0  0  0  0  0  0  0  0  0  0  0  0
    1.0924   -2.7923   -1.7017 H   0  0  0  0  0  0  0  0  0  0  0  0
    1.5972   -1.2229   -2.2912 H   0  0  0  0  0  0  0  0  0  0  0  0
    3.8579   -0.8134    0.7777 H   0  0  0  0  0  0  0  0  0  0  0  0
    3.8385   -0.3543   -0.9277 H   0  0  0  0  0  0  0  0  0  0  0  0
    4.0299    0.8765    0.3021 H   0  0  0  0  0  0  0  0  0  0  0  0
  2  1  1  0  0  0  0
  3  2  1  0  0  0  0
  4  3  1  0  0  0  0
  5  4  1  0  0  0  0
  6  5  1  0  0  0  0
  7  6  1  0  0  0  0
  8  6  1  0  0  0  0
  9  8  1  0  0  0  0
 10  9  1  0  0  0  0
 11 10  1  0  0  0  0
 12 11  1  0  0  0  0
 13 12  1  0  0  0  0
 13  2  1  0  0  0  0
 14 13  1  0  0  0  0
 15 13  1  0  0  0  0
 16 12  1  0  0  0  0
 16  4  1  0  0  0  0
 17 16  1  0  0  0  0
 18 17  1  0  0  0  0
 19 17  2  0  0  0  0
 20 19  1  0  0  0  0
 20 16  1  0  0  0  0
 21 20  1  0  0  0  0
 22 20  1  0  0  0  0
 22 10  1  0  0  0  0
 22  6  1  0  0  0  0
 23 22  1  0  0  0  0
  1 24  1  0  0  0  0
  1 25  1  0  0  0  0
  1 26  1  0  0  0  0
  2 27  1  0  0  0  0
  4 28  1  0  0  0  0
  7 29  1  0  0  0  0
  8 30  1  0  0  0  0
  8 31  1  0  0  0  0
  9 32  1  0  0  0  0
  9 33  1  0  0  0  0
 10 34  1  0  0  0  0
 11 35  1  0  0  0  0
 11 36  1  0  0  0  0
 12 37  1  0  0  0  0
 14 38  1  0  0  0  0
 14 39  1  0  0  0  0
 14 40  1  0  0  0  0
 15 41  1  0  0  0  0
 19 42  1  0  0  0  0
 21 43  1  0  0  0  0
 21 44  1  0  0  0  0
 21 45  1  0  0  0  0
 23 46  1  0  0  0  0
 23 47  1  0  0  0  0
 23 48  1  0  0  0  0
M  END
>  <energy>
77.324732818941044

$$$$
