CC1(Br)OC2C(C)(C)C(C(=O)O)=C(C1O)C2(C)C
                    3D

 37 38  0  0  0  0  0  0  0  0999 V2000
   -2.5647   -1.4024   -0.7741 C   0  0  0  0  0  0  0  0  0  0  0  0
   -1.8826   -0.0319   -0.9355 C   0  0  0  0  0  0  0  0  0  0  0  0
   -3.1882    0.9579   -2.0987 Br  0  0  0  0  0  0  0  0  0  0  0  0
   -0.6505   -0.1869   -1.7267 O   0  0  0  0  0  0  0  0  0  0  0  0
    0.6628    0.1001   -1.1144 C   0  0  0  0  0  0  0  0  0  0  0  0
    1.0935   -1.0202   -0.0955 C   0  0  0  0  0  0  0  0  0  0  0  0
    2.6044   -1.0878    0.1921 C   0  0  0  0  0  0  0  0  0  0  0  0
    0.7459   -2.4201   -0.6438 C   0  0  0  0  0  0  0  0  0  0  0  0
    0.3040   -0.4966    1.1014 C   0  0  0  0  0  0  0  0  0  0  0  0
   -0.2077   -1.3780    2.1638 C   0  0  0  0  0  0  0  0  0  0  0  0
   -0.3860   -2.5751    2.0521 O   0  0  0  0  0  0  0  0  0  0  0  0
   -0.4383   -0.6894    3.3003 O   0  0  0  0  0  0  0  0  0  0  0  0
   -0.2587    0.7100    0.7932 C   0  0  0  0  0  0  0  0  0  0  0  0
   -1.7430    0.6790    0.4821 C   0  0  0  0  0  0  0  0  0  0  0  0
   -2.2254    2.0132    0.5562 O   0  0  0  0  0  0  0  0  0  0  0  0
    0.5674    1.4052   -0.2954 C   0  0  0  0  0  0  0  0  0  0  0  0
    0.0014    2.5772   -1.1174 C   0  0  0  0  0  0  0  0  0  0  0  0
    1.8612    1.9766    0.3379 C   0  0  0  0  0  0  0  0  0  0  0  0
   -2.0888   -2.0074   -0.0006 H   0  0  0  0  0  0  0  0  0  0  0  0
   -3.6144   -1.3059   -0.4695 H   0  0  0  0  0  0  0  0  0  0  0  0
   -2.5275   -1.9810   -1.7052 H   0  0  0  0  0  0  0  0  0  0  0  0
    1.3872    0.1796   -1.9320 H   0  0  0  0  0  0  0  0  0  0  0  0
    3.1630   -1.2763   -0.7316 H   0  0  0  0  0  0  0  0  0  0  0  0
    3.0358   -0.2015    0.6492 H   0  0  0  0  0  0  0  0  0  0  0  0
    2.8245   -1.9096    0.8842 H   0  0  0  0  0  0  0  0  0  0  0  0
   -0.3145   -2.5949   -0.7907 H   0  0  0  0  0  0  0  0  0  0  0  0
    1.1000   -3.2116    0.0278 H   0  0  0  0  0  0  0  0  0  0  0  0
    1.2323   -2.5806   -1.6132 H   0  0  0  0  0  0  0  0  0  0  0  0
   -0.1130    0.2324    3.2725 H   0  0  0  0  0  0  0  0  0  0  0  0
   -2.3058    0.1140    1.2339 H   0  0  0  0  0  0  0  0  0  0  0  0
   -2.2764    2.2660    1.4933 H   0  0  0  0  0  0  0  0  0  0  0  0
   -0.8191    2.3121   -1.7751 H   0  0  0  0  0  0  0  0  0  0  0  0
   -0.3398    3.3900   -0.4689 H   0  0  0  0  0  0  0  0  0  0  0  0
    0.7772    2.9853   -1.7784 H   0  0  0  0  0  0  0  0  0  0  0  0
    1.7301    3.0330    0.6153 H   0  0  0  0  0  0  0  0  0  0  0  0
    2.7008    1.9315   -0.3655 H   0  0  0  0  0  0  0  0  0  0  0  0
    2.1530    1.4940    1.2770 H   0  0  0  0  0  0  0  0  0  0  0  0
  2  1  1  0  0  0  0
  3  2  1  0  0  0  0
  4  2  1  0  0  0  0
  5  4  1  0  0  0  0
  6  5  1  0  0  0  0
  7  6  1  0  0  0  0
  8  6  1  0  0  0  0
  9  6  1  0  0  0  0
 10  9  1  0  0  0  0
 11 10  2  0  0  0  0
 12 10  1  0  0  0  0
 13  9  2  0  0  0  0
 14 13  1  0  0  0  0
 14  2  1  0  0  0  0
 15 14  1  0  0  0  0
 16 13  1  0  0  0  0
 16  5  1  0  0  0  0
 17 16  1  0  0  0  0
 18 16  1  0  0  0  0
  1 19  1  0  0  0  0
  1 20  1  0  0  0  0
  1 21  1  0  0  0  0
  5 22  1  0  0  0  0
  7 23  1  0  0  0  0
  7 24  1  0  0  0  0
  7 25  1  0  0  0  0
  8 26  1  0  0  0  0
  8 27  1  0  0  0  0
  8 28  1  0  0  0  0
 12 29  1  0  0  0  0
 14 30  1  0  0  0  0
 15 31  1  0  0  0  0
 17 32  1  0  0  0  0
 17 33  1  0  0  0  0
 17 34  1  0  0  0  0
 18 35  1  0  0  0  0
 18 36  1  0  0  0  0
 18 37  1  0  0  0  0
M  END
>  <energy>
140.63061654039669

$$$$
