CC(=O)OC1C2C=CC23C(C)CC(CC(N)=O)OC12C1CC(CC(CNCCCCNCCCN)C(C)C)CCC4C1(O)C3C42C
                    3D

108113  0  0  0  0  0  0  0  0999 V2000
   -1.5284    3.3963    0.3773 C   0  0  0  0  0  0  0  0  0  0  0  0
   -0.5848    2.2378    0.4206 C   0  0  0  0  0  0  0  0  0  0  0  0
   -0.6425    1.3180    1.2239 O   0  0  0  0  0  0  0  0  0  0  0  0
    0.4234    2.4278   -0.4747 O   0  0  0  0  0  0  0  0  0  0  0  0
    1.6616    1.7962   -0.0936 C   0  0  0  0  0  0  0  0  0  0  0  0
    2.8641    2.5951   -0.6164 C   0  0  0  0  0  0  0  0  0  0  0  0
    2.8499    3.4208   -1.8822 C   0  0  0  0  0  0  0  0  0  0  0  0
    4.0698    2.9873   -2.2504 C   0  0  0  0  0  0  0  0  0  0  0  0
    4.0231    1.7636   -1.2804 C   0  0  0  0  0  0  0  0  0  0  0  0
    5.2913    1.5346   -0.4508 C   0  0  0  0  0  0  0  0  0  0  0  0
    5.9587    2.8417    0.0150 C   0  0  0  0  0  0  0  0  0  0  0  0
    5.0519    0.6303    0.7746 C   0  0  0  0  0  0  0  0  0  0  0  0
    3.7119    0.7973    1.5433 C   0  0  0  0  0  0  0  0  0  0  0  0
    3.8634    0.1529    2.9416 C   0  0  0  0  0  0  0  0  0  0  0  0
    2.7704    0.6034    3.8903 C   0  0  0  0  0  0  0  0  0  0  0  0
    1.5200    0.1380    3.6141 N   0  0  0  0  0  0  0  0  0  0  0  0
    2.9797    1.3274    4.8584 O   0  0  0  0  0  0  0  0  0  0  0  0
    2.5228    0.1561    1.0085 O   0  0  0  0  0  0  0  0  0  0  0  0
    1.7706    0.2090   -0.3509 C   0  0  0  0  0  0  0  0  0  0  0  0
    2.7440   -1.1065   -0.5059 C   0  0  0  0  0  0  0  0  0  0  0  0
    2.1030   -2.4530   -0.0981 C   0  0  0  0  0  0  0  0  0  0  0  0
    1.0756   -3.2282   -0.9131 C   0  0  0  0  0  0  0  0  0  0  0  0
   -0.3848   -2.7762   -0.7543 C   0  0  0  0  0  0  0  0  0  0  0  0
   -1.1523   -3.0013    0.5900 C   0  0  0  0  0  0  0  0  0  0  0  0
   -2.6222   -2.5734    0.2806 C   0  0  0  0  0  0  0  0  0  0  0  0
   -3.4030   -2.0672    1.4082 N   0  0  0  0  0  0  0  0  0  0  0  0
   -3.0906   -0.6648    1.7002 C   0  0  0  0  0  0  0  0  0  0  0  0
   -4.1011   -0.0573    2.6762 C   0  0  0  0  0  0  0  0  0  0  0  0
   -5.5666   -0.1277    2.2214 C   0  0  0  0  0  0  0  0  0  0  0  0
   -5.8803    0.5882    0.9029 C   0  0  0  0  0  0  0  0  0  0  0  0
   -5.7905    2.0466    1.0517 N   0  0  0  0  0  0  0  0  0  0  0  0
   -6.0733    2.7429   -0.2112 C   0  0  0  0  0  0  0  0  0  0  0  0
   -4.8091    2.8942   -1.0592 C   0  0  0  0  0  0  0  0  0  0  0  0
   -5.0876    3.5937   -2.3864 C   0  0  0  0  0  0  0  0  0  0  0  0
   -3.8384    3.8208   -3.1097 N   0  0  0  0  0  0  0  0  0  0  0  0
   -1.0012   -4.4589    1.1539 C   0  0  0  0  0  0  0  0  0  0  0  0
   -2.2280   -5.0499    1.8626 C   0  0  0  0  0  0  0  0  0  0  0  0
    0.1666   -4.5559    2.1491 C   0  0  0  0  0  0  0  0  0  0  0  0
    1.4818   -3.3276   -2.3784 C   0  0  0  0  0  0  0  0  0  0  0  0
    1.2872   -2.0470   -3.1514 C   0  0  0  0  0  0  0  0  0  0  0  0
    2.3135   -0.9674   -2.8459 C   0  0  0  0  0  0  0  0  0  0  0  0
    3.4536   -0.9276   -1.8253 C   0  0  0  0  0  0  0  0  0  0  0  0
    4.6157   -1.7336   -2.0389 O   0  0  0  0  0  0  0  0  0  0  0  0
    3.5129    0.6029   -2.2099 C   0  0  0  0  0  0  0  0  0  0  0  0
    1.9860    0.3665   -1.9851 C   0  0  0  0  0  0  0  0  0  0  0  0
    0.8668    1.0294   -2.7964 C   0  0  0  0  0  0  0  0  0  0  0  0
   -2.4031    3.1570    0.9854 H   0  0  0  0  0  0  0  0  0  0  0  0
   -1.8368    3.5922   -0.6507 H   0  0  0  0  0  0  0  0  0  0  0  0
   -1.0414    4.2800    0.7985 H   0  0  0  0  0  0  0  0  0  0  0  0
    1.6464    2.0050    0.9865 H   0  0  0  0  0  0  0  0  0  0  0  0
    3.1828    3.2439    0.2144 H   0  0  0  0  0  0  0  0  0  0  0  0
    2.1915    4.2146   -2.2285 H   0  0  0  0  0  0  0  0  0  0  0  0
    4.7512    3.2578   -3.0542 H   0  0  0  0  0  0  0  0  0  0  0  0
    6.0316    1.0333   -1.0907 H   0  0  0  0  0  0  0  0  0  0  0  0
    5.3287    3.3990    0.7135 H   0  0  0  0  0  0  0  0  0  0  0  0
    6.9048    2.6263    0.5253 H   0  0  0  0  0  0  0  0  0  0  0  0
    6.2028    3.4983   -0.8265 H   0  0  0  0  0  0  0  0  0  0  0  0
    5.8772    0.8159    1.4764 H   0  0  0  0  0  0  0  0  0  0  0  0
    5.2274   -0.4053    0.4750 H   0  0  0  0  0  0  0  0  0  0  0  0
    3.5350    1.8580    1.7373 H   0  0  0  0  0  0  0  0  0  0  0  0
    4.8136    0.4448    3.3987 H   0  0  0  0  0  0  0  0  0  0  0  0
    3.8371   -0.9423    2.8802 H   0  0  0  0  0  0  0  0  0  0  0  0
    1.3134   -0.1118    2.6525 H   0  0  0  0  0  0  0  0  0  0  0  0
    0.7589    0.5654    4.1301 H   0  0  0  0  0  0  0  0  0  0  0  0
    3.5899   -1.1857    0.1755 H   0  0  0  0  0  0  0  0  0  0  0  0
    2.9436   -3.1543    0.0280 H   0  0  0  0  0  0  0  0  0  0  0  0
    1.7062   -2.3198    0.9152 H   0  0  0  0  0  0  0  0  0  0  0  0
    1.1186   -4.2630   -0.5513 H   0  0  0  0  0  0  0  0  0  0  0  0
   -0.9680   -3.2819   -1.5350 H   0  0  0  0  0  0  0  0  0  0  0  0
   -0.4400   -1.7058   -0.9796 H   0  0  0  0  0  0  0  0  0  0  0  0
   -0.7316   -2.2964    1.3185 H   0  0  0  0  0  0  0  0  0  0  0  0
   -3.1566   -3.4255   -0.1531 H   0  0  0  0  0  0  0  0  0  0  0  0
   -2.6464   -1.8207   -0.5181 H   0  0  0  0  0  0  0  0  0  0  0  0
   -3.2344   -2.6243    2.2428 H   0  0  0  0  0  0  0  0  0  0  0  0
   -3.0798   -0.0659    0.7839 H   0  0  0  0  0  0  0  0  0  0  0  0
   -2.0927   -0.6033    2.1440 H   0  0  0  0  0  0  0  0  0  0  0  0
   -4.0131   -0.5730    3.6414 H   0  0  0  0  0  0  0  0  0  0  0  0
   -3.8234    0.9875    2.8610 H   0  0  0  0  0  0  0  0  0  0  0  0
   -6.1963    0.2878    3.0191 H   0  0  0  0  0  0  0  0  0  0  0  0
   -5.8635   -1.1790    2.1248 H   0  0  0  0  0  0  0  0  0  0  0  0
   -5.2176    0.2307    0.1103 H   0  0  0  0  0  0  0  0  0  0  0  0
   -6.9029    0.3228    0.6095 H   0  0  0  0  0  0  0  0  0  0  0  0
   -6.4791    2.3357    1.7476 H   0  0  0  0  0  0  0  0  0  0  0  0
   -6.4335    3.7492    0.0381 H   0  0  0  0  0  0  0  0  0  0  0  0
   -6.8770    2.2536   -0.7729 H   0  0  0  0  0  0  0  0  0  0  0  0
   -4.3423    1.9182   -1.2439 H   0  0  0  0  0  0  0  0  0  0  0  0
   -4.0975    3.4987   -0.4900 H   0  0  0  0  0  0  0  0  0  0  0  0
   -5.7617    2.9920   -3.0027 H   0  0  0  0  0  0  0  0  0  0  0  0
   -5.5692    4.5597   -2.2067 H   0  0  0  0  0  0  0  0  0  0  0  0
   -3.4749    2.9320   -3.4532 H   0  0  0  0  0  0  0  0  0  0  0  0
   -4.0239    4.3898   -3.9354 H   0  0  0  0  0  0  0  0  0  0  0  0
   -0.7889   -5.1299    0.3108 H   0  0  0  0  0  0  0  0  0  0  0  0
   -2.0174   -6.0758    2.1916 H   0  0  0  0  0  0  0  0  0  0  0  0
   -2.4951   -4.4802    2.7583 H   0  0  0  0  0  0  0  0  0  0  0  0
   -3.0973   -5.1135    1.2027 H   0  0  0  0  0  0  0  0  0  0  0  0
    0.2818   -5.5800    2.5198 H   0  0  0  0  0  0  0  0  0  0  0  0
   -0.0014   -3.9053    3.0140 H   0  0  0  0  0  0  0  0  0  0  0  0
    1.1196   -4.2811    1.7008 H   0  0  0  0  0  0  0  0  0  0  0  0
    2.5126   -3.6867   -2.4637 H   0  0  0  0  0  0  0  0  0  0  0  0
    0.8605   -4.1006   -2.8513 H   0  0  0  0  0  0  0  0  0  0  0  0
    0.2700   -1.6582   -3.0550 H   0  0  0  0  0  0  0  0  0  0  0  0
    1.3742   -2.3107   -4.2159 H   0  0  0  0  0  0  0  0  0  0  0  0
    2.6889   -0.7485   -3.8666 H   0  0  0  0  0  0  0  0  0  0  0  0
    4.3111   -2.6512   -1.9464 H   0  0  0  0  0  0  0  0  0  0  0  0
    3.8722    0.7451   -3.2432 H   0  0  0  0  0  0  0  0  0  0  0  0
   -0.1132    0.6345   -2.5009 H   0  0  0  0  0  0  0  0  0  0  0  0
    0.8305    2.1155   -2.7191 H   0  0  0  0  0  0  0  0  0  0  0  0
    0.9827    0.8398   -3.8728 H   0  0  0  0  0  0  0  0  0  0  0  0
  2  1  1  0  0  0  0
  3  2  2  0  0  0  0
  4  2  1  0  0  0  0
  5  4  1  0  0  0  0
  6  5  1  0  0  0  0
  7  6  1  0  0  0  0
  8  7  2  0  0  0  0
  9  8  1  0  0  0  0
  9  6  1  0  0  0  0
 10  9  1  0  0  0  0
 11 10  1  0  0  0  0
 12 10  1  0  0  0  0
 13 12  1  0  0  0  0
 14 13  1  0  0  0  0
 15 14  1  0  0  0  0
 16 15  1  0  0  0  0
 17 15  2  0  0  0  0
 18 13  1  0  0  0  0
 19 18  1  0  0  0  0
 19  5  1  0  0  0  0
 20 19  1  0  0  0  0
 21 20  1  0  0  0  0
 22 21  1  0  0  0  0
 23 22  1  0  0  0  0
 24 23  1  0  0  0  0
 25 24  1  0  0  0  0
 26 25  1  0  0  0  0
 27 26  1  0  0  0  0
 28 27  1  0  0  0  0
 29 28  1  0  0  0  0
 30 29  1  0  0  0  0
 31 30  1  0  0  0  0
 32 31  1  0  0  0  0
 33 32  1  0  0  0  0
 34 33  1  0  0  0  0
 35 34  1  0  0  0  0
 36 24  1  0  0  0  0
 37 36  1  0  0  0  0
 38 36  1  0  0  0  0
 39 22  1  0  0  0  0
 40 39  1  0  0  0  0
 41 40  1  0  0  0  0
 42 41  1  0  0  0  0
 42 20  1  0  0  0  0
 43 42  1  0  0  0  0
 44 42  1  0  0  0  0
 44  9  1  0  0  0  0
 45 44  1  0  0  0  0
 45 41  1  0  0  0  0
 45 19  1  0  0  0  0
 46 45  1  0  0  0  0
  1 47  1  0  0  0  0
  1 48  1  0  0  0  0
  1 49  1  0  0  0  0
  5 50  1  0  0  0  0
  6 51  1  0  0  0  0
  7 52  1  0  0  0  0
  8 53  1  0  0  0  0
 10 54  1  0  0  0  0
 11 55  1  0  0  0  0
 11 56  1  0  0  0  0
 11 57  1  0  0  0  0
 12 58  1  0  0  0  0
 12 59  1  0  0  0  0
 13 60  1  0  0  0  0
 14 61  1  0  0  0  0
 14 62  1  0  0  0  0
 16 63  1  0  0  0  0
 16 64  1  0  0  0  0
 20 65  1  0  0  0  0
 21 66  1  0  0  0  0
 21 67  1  0  0  0  0
 22 68  1  0  0  0  0
 23 69  1  0  0  0  0
 23 70  1  0  0  0  0
 24 71  1  0  0  0  0
 25 72  1  0  0  0  0
 25 73  1  0  0  0  0
 26 74  1  0  0  0  0
 27 75  1  0  0  0  0
 27 76  1  0  0  0  0
 28 77  1  0  0  0  0
 28 78  1  0  0  0  0
 29 79  1  0  0  0  0
 29 80  1  0  0  0  0
 30 81  1  0  0  0  0
 30 82  1  0  0  0  0
 31 83  1  0  0  0  0
 32 84  1  0  0  0  0
 32 85  1  0  0  0  0
 33 86  1  0  0  0  0
 33 87  1  0  0  0  0
 34 88  1  0  0  0  0
 34 89  1  0  0  0  0
 35 90  1  0  0  0  0
 35 91  1  0  0  0  0
 36 92  1  0  0  0  0
 37 93  1  0  0  0  0
 37 94  1  0  0  0  0
 37 95  1  0  0  0  0
 38 96  1  0  0  0  0
 38 97  1  0  0  0  0
 38 98  1  0  0  0  0
 39 99  1  0  0  0  0
 39100  1  0  0  0  0
 40101  1  0  0  0  0
 40102  1  0  0  0  0
 41103  1  0  0  0  0
 43104  1  0  0  0  0
 44105  1  0  0  0  0
 46106  1  0  0  0  0
 46107  1  0  0  0  0
 46108  1  0  0  0  0
M  END
>  <energy>
292.17736288942177

$$$$
