C=CCOC(=O)NOC1CCCN2CC13CC2C3
                    3D

 38 40  0  0  0  0  0  0  0  0999 V2000
   -3.6863    2.6042   -1.4285 C   0  0  0  0  0  0  0  0  0  0  0  0
   -4.5847    2.1710   -0.5290 C   0  0  0  0  0  0  0  0  0  0  0  0
   -4.8162    0.7368   -0.1262 C   0  0  0  0  0  0  0  0  0  0  0  0
   -3.7619   -0.1023   -0.6190 O   0  0  0  0  0  0  0  0  0  0  0  0
   -2.8213   -0.4910    0.2811 C   0  0  0  0  0  0  0  0  0  0  0  0
   -2.8586   -0.2695    1.4802 O   0  0  0  0  0  0  0  0  0  0  0  0
   -1.8227   -1.1388   -0.3934 N   0  0  0  0  0  0  0  0  0  0  0  0
   -0.6273   -1.4266    0.2969 O   0  0  0  0  0  0  0  0  0  0  0  0
    0.5197   -1.2356   -0.5483 C   0  0  0  0  0  0  0  0  0  0  0  0
    1.5637   -2.3731   -0.2388 C   0  0  0  0  0  0  0  0  0  0  0  0
    2.7150   -2.1553    0.8155 C   0  0  0  0  0  0  0  0  0  0  0  0
    3.6408   -0.8618    0.8987 C   0  0  0  0  0  0  0  0  0  0  0  0
    3.3212    0.4316    0.2153 N   0  0  0  0  0  0  0  0  0  0  0  0
    2.5718    0.0996   -0.9641 C   0  0  0  0  0  0  0  0  0  0  0  0
    1.1808    0.0897   -0.2933 C   0  0  0  0  0  0  0  0  0  0  0  0
    1.1791    0.2849    1.3297 C   0  0  0  0  0  0  0  0  0  0  0  0
    2.2910    1.2567    0.9478 C   0  0  0  0  0  0  0  0  0  0  0  0
    1.1732    1.6710   -0.1629 C   0  0  0  0  0  0  0  0  0  0  0  0
   -3.5698    3.6559   -1.6547 H   0  0  0  0  0  0  0  0  0  0  0  0
   -3.0542    1.9116   -1.9705 H   0  0  0  0  0  0  0  0  0  0  0  0
   -5.2078    2.9078   -0.0227 H   0  0  0  0  0  0  0  0  0  0  0  0
   -5.7521    0.3931   -0.5831 H   0  0  0  0  0  0  0  0  0  0  0  0
   -4.9480    0.6596    0.9565 H   0  0  0  0  0  0  0  0  0  0  0  0
   -1.8337   -1.0997   -1.4008 H   0  0  0  0  0  0  0  0  0  0  0  0
    0.2274   -1.3426   -1.5999 H   0  0  0  0  0  0  0  0  0  0  0  0
    1.0120   -3.2739    0.0658 H   0  0  0  0  0  0  0  0  0  0  0  0
    2.0521   -2.6510   -1.1821 H   0  0  0  0  0  0  0  0  0  0  0  0
    2.2960   -2.3483    1.8164 H   0  0  0  0  0  0  0  0  0  0  0  0
    3.4088   -2.9970    0.6651 H   0  0  0  0  0  0  0  0  0  0  0  0
    3.8444   -0.6558    1.9586 H   0  0  0  0  0  0  0  0  0  0  0  0
    4.6138   -1.1656    0.4872 H   0  0  0  0  0  0  0  0  0  0  0  0
    2.6887    0.8675   -1.7433 H   0  0  0  0  0  0  0  0  0  0  0  0
    2.9138   -0.8140   -1.4678 H   0  0  0  0  0  0  0  0  0  0  0  0
    0.2698    0.7259    1.7696 H   0  0  0  0  0  0  0  0  0  0  0  0
    1.4382   -0.5065    2.0294 H   0  0  0  0  0  0  0  0  0  0  0  0
    2.6394    1.9809    1.6829 H   0  0  0  0  0  0  0  0  0  0  0  0
    0.2645    2.1532    0.2194 H   0  0  0  0  0  0  0  0  0  0  0  0
    1.5194    2.3077   -0.9878 H   0  0  0  0  0  0  0  0  0  0  0  0
  2  1  2  0  0  0  0
  3  2  1  0  0  0  0
  4  3  1  0  0  0  0
  5  4  1  0  0  0  0
  6  5  2  0  0  0  0
  7  5  1  0  0  0  0
  8  7  1  0  0  0  0
  9  8  1  0  0  0  0
 10  9  1  0  0  0  0
 11 10  1  0  0  0  0
 12 11  1  0  0  0  0
 13 12  1  0  0  0  0
 14 13  1  0  0  0  0
 15 14  1  0  0  0  0
 15  9  1  0  0  0  0
 16 15  1  0  0  0  0
 17 16  1  0  0  0  0
 17 13  1  0  0  0  0
 18 17  1  0  0  0  0
 18 15  1  0  0  0  0
  1 19  1  0  0  0  0
  1 20  1  0  0  0  0
  2 21  1  0  0  0  0
  3 22  1  0  0  0  0
  3 23  1  0  0  0  0
  7 24  1  0  0  0  0
  9 25  1  0  0  0  0
 10 26  1  0  0  0  0
 10 27  1  0  0  0  0
 11 28  1  0  0  0  0
 11 29  1  0  0  0  0
 12 30  1  0  0  0  0
 12 31  1  0  0  0  0
 14 32  1  0  0  0  0
 14 33  1  0  0  0  0
 16 34  1  0  0  0  0
 16 35  1  0  0  0  0
 17 36  1  0  0  0  0
 18 37  1  0  0  0  0
 18 38  1  0  0  0  0
M  END
>  <energy>
96.206235613616712

$$$$
