CCCCCCCC(O)C1COC(CCC2C3CC24CC2CC3OC4C2)C1O
                    3D

 68 72  0  0  0  0  0  0  0  0999 V2000
    0.2758   -5.2893    0.4488 C   0  0  0  0  0  0  0  0  0  0  0  0
    0.9348   -4.2172    1.3035 C   0  0  0  0  0  0  0  0  0  0  0  0
    1.4853   -3.0466    0.4848 C   0  0  0  0  0  0  0  0  0  0  0  0
    2.7040   -3.4192   -0.3668 C   0  0  0  0  0  0  0  0  0  0  0  0
    3.2020   -2.2467   -1.2245 C   0  0  0  0  0  0  0  0  0  0  0  0
    3.9815   -1.2106   -0.4115 C   0  0  0  0  0  0  0  0  0  0  0  0
    4.4950   -0.0217   -1.2296 C   0  0  0  0  0  0  0  0  0  0  0  0
    3.5097    1.1156   -1.5671 C   0  0  0  0  0  0  0  0  0  0  0  0
    2.4241    0.6524   -2.3630 O   0  0  0  0  0  0  0  0  0  0  0  0
    2.9888    1.8937   -0.3463 C   0  0  0  0  0  0  0  0  0  0  0  0
    2.5079    3.2859   -0.7460 C   0  0  0  0  0  0  0  0  0  0  0  0
    1.4790    3.6328    0.1816 O   0  0  0  0  0  0  0  0  0  0  0  0
    0.7304    2.4207    0.3826 C   0  0  0  0  0  0  0  0  0  0  0  0
   -0.1201    2.5750    1.6448 C   0  0  0  0  0  0  0  0  0  0  0  0
   -1.2014    1.4921    1.7880 C   0  0  0  0  0  0  0  0  0  0  0  0
   -2.5817    2.0061    1.3089 C   0  0  0  0  0  0  0  0  0  0  0  0
   -2.7486    2.5957   -0.1030 C   0  0  0  0  0  0  0  0  0  0  0  0
   -4.1955    2.8991    0.4684 C   0  0  0  0  0  0  0  0  0  0  0  0
   -4.1719    1.3223    0.9073 C   0  0  0  0  0  0  0  0  0  0  0  0
   -3.6583   -0.0615    1.3291 C   0  0  0  0  0  0  0  0  0  0  0  0
   -3.2813   -0.7124   -0.0194 C   0  0  0  0  0  0  0  0  0  0  0  0
   -2.2960    0.1186   -0.9248 C   0  0  0  0  0  0  0  0  0  0  0  0
   -2.7861    1.5625   -1.2619 C   0  0  0  0  0  0  0  0  0  0  0  0
   -4.1670    1.4604   -1.6271 O   0  0  0  0  0  0  0  0  0  0  0  0
   -4.8632    0.8630   -0.5150 C   0  0  0  0  0  0  0  0  0  0  0  0
   -4.6466   -0.6347   -0.6729 C   0  0  0  0  0  0  0  0  0  0  0  0
    1.7778    1.2931    0.3776 C   0  0  0  0  0  0  0  0  0  0  0  0
    2.2052    0.9204    1.6933 O   0  0  0  0  0  0  0  0  0  0  0  0
    1.0191   -5.8710   -0.1031 H   0  0  0  0  0  0  0  0  0  0  0  0
   -0.2854   -5.9821    1.0819 H   0  0  0  0  0  0  0  0  0  0  0  0
   -0.4209   -4.8511   -0.2717 H   0  0  0  0  0  0  0  0  0  0  0  0
    0.1886   -3.8264    2.0049 H   0  0  0  0  0  0  0  0  0  0  0  0
    1.7316   -4.6640    1.9086 H   0  0  0  0  0  0  0  0  0  0  0  0
    0.6911   -2.6484   -0.1585 H   0  0  0  0  0  0  0  0  0  0  0  0
    1.7544   -2.2434    1.1797 H   0  0  0  0  0  0  0  0  0  0  0  0
    2.4393   -4.2437   -1.0405 H   0  0  0  0  0  0  0  0  0  0  0  0
    3.5130   -3.7870    0.2761 H   0  0  0  0  0  0  0  0  0  0  0  0
    3.8659   -2.6511   -1.9982 H   0  0  0  0  0  0  0  0  0  0  0  0
    2.3528   -1.7916   -1.7419 H   0  0  0  0  0  0  0  0  0  0  0  0
    4.8582   -1.7201    0.0116 H   0  0  0  0  0  0  0  0  0  0  0  0
    3.4023   -0.8649    0.4441 H   0  0  0  0  0  0  0  0  0  0  0  0
    5.3361    0.4210   -0.6798 H   0  0  0  0  0  0  0  0  0  0  0  0
    4.9138   -0.4067   -2.1676 H   0  0  0  0  0  0  0  0  0  0  0  0
    4.0656    1.8246   -2.1962 H   0  0  0  0  0  0  0  0  0  0  0  0
    2.8014    0.2879   -3.1855 H   0  0  0  0  0  0  0  0  0  0  0  0
    3.8206    2.0296    0.3589 H   0  0  0  0  0  0  0  0  0  0  0  0
    3.3085    4.0293   -0.6882 H   0  0  0  0  0  0  0  0  0  0  0  0
    2.0906    3.3173   -1.7579 H   0  0  0  0  0  0  0  0  0  0  0  0
    0.0845    2.3169   -0.4973 H   0  0  0  0  0  0  0  0  0  0  0  0
   -0.5709    3.5742    1.6639 H   0  0  0  0  0  0  0  0  0  0  0  0
    0.5337    2.5587    2.5251 H   0  0  0  0  0  0  0  0  0  0  0  0
   -0.8816    0.5631    1.3208 H   0  0  0  0  0  0  0  0  0  0  0  0
   -1.2910    1.2556    2.8573 H   0  0  0  0  0  0  0  0  0  0  0  0
   -2.7311    2.7409    2.1285 H   0  0  0  0  0  0  0  0  0  0  0  0
   -2.1643    3.4913   -0.3297 H   0  0  0  0  0  0  0  0  0  0  0  0
   -4.2709    3.6330    1.2863 H   0  0  0  0  0  0  0  0  0  0  0  0
   -4.9475    3.2464   -0.2526 H   0  0  0  0  0  0  0  0  0  0  0  0
   -2.8796   -0.1255    2.0869 H   0  0  0  0  0  0  0  0  0  0  0  0
   -4.4902   -0.6113    1.7932 H   0  0  0  0  0  0  0  0  0  0  0  0
   -2.9376   -1.7418    0.1025 H   0  0  0  0  0  0  0  0  0  0  0  0
   -1.2762    0.1135   -0.5436 H   0  0  0  0  0  0  0  0  0  0  0  0
   -2.2462   -0.4223   -1.8806 H   0  0  0  0  0  0  0  0  0  0  0  0
   -2.2358    1.9565   -2.1229 H   0  0  0  0  0  0  0  0  0  0  0  0
   -5.9255    1.1242   -0.5587 H   0  0  0  0  0  0  0  0  0  0  0  0
   -5.3948   -1.2171   -0.1265 H   0  0  0  0  0  0  0  0  0  0  0  0
   -4.6345   -0.9683   -1.7154 H   0  0  0  0  0  0  0  0  0  0  0  0
    1.3781    0.3928   -0.0983 H   0  0  0  0  0  0  0  0  0  0  0  0
    1.4512    0.5116    2.1444 H   0  0  0  0  0  0  0  0  0  0  0  0
  2  1  1  0  0  0  0
  3  2  1  0  0  0  0
  4  3  1  0  0  0  0
  5  4  1  0  0  0  0
  6  5  1  0  0  0  0
  7  6  1  0  0  0  0
  8  7  1  0  0  0  0
  9  8  1  0  0  0  0
 10  8  1  0  0  0  0
 11 10  1  0  0  0  0
 12 11  1  0  0  0  0
 13 12  1  0  0  0  0
 14 13  1  0  0  0  0
 15 14  1  0  0  0  0
 16 15  1  0  0  0  0
 17 16  1  0  0  0  0
 18 17  1  0  0  0  0
 19 18  1  0  0  0  0
 19 16  1  0  0  0  0
 20 19  1  0  0  0  0
 21 20  1  0  0  0  0
 22 21  1  0  0  0  0
 23 22  1  0  0  0  0
 23 17  1  0  0  0  0
 24 23  1  0  0  0  0
 25 24  1  0  0  0  0
 25 19  1  0  0  0  0
 26 25  1  0  0  0  0
 26 21  1  0  0  0  0
 27 13  1  0  0  0  0
 27 10  1  0  0  0  0
 28 27  1  0  0  0  0
  1 29  1  0  0  0  0
  1 30  1  0  0  0  0
  1 31  1  0  0  0  0
  2 32  1  0  0  0  0
  2 33  1  0  0  0  0
  3 34  1  0  0  0  0
  3 35  1  0  0  0  0
  4 36  1  0  0  0  0
  4 37  1  0  0  0  0
  5 38  1  0  0  0  0
  5 39  1  0  0  0  0
  6 40  1  0  0  0  0
  6 41  1  0  0  0  0
  7 42  1  0  0  0  0
  7 43  1  0  0  0  0
  8 44  1  0  0  0  0
  9 45  1  0  0  0  0
 10 46  1  0  0  0  0
 11 47  1  0  0  0  0
 11 48  1  0  0  0  0
 13 49  1  0  0  0  0
 14 50  1  0  0  0  0
 14 51  1  0  0  0  0
 15 52  1  0  0  0  0
 15 53  1  0  0  0  0
 16 54  1  0  0  0  0
 17 55  1  0  0  0  0
 18 56  1  0  0  0  0
 18 57  1  0  0  0  0
 20 58  1  0  0  0  0
 20 59  1  0  0  0  0
 21 60  1  0  0  0  0
 22 61  1  0  0  0  0
 22 62  1  0  0  0  0
 23 63  1  0  0  0  0
 25 64  1  0  0  0  0
 26 65  1  0  0  0  0
 26 66  1  0  0  0  0
 27 67  1  0  0  0  0
 28 68  1  0  0  0  0
M  END
>  <energy>
187.25419754633771

$$$$
