CC1C(C)(C)C2(O)CC3(O)C(O)C4(C)C5CC2C14C(C)(OCl)C(C)(O)C53C
                    3D

 60 64  0  0  0  0  0  0  0  0999 V2000
   -2.9964   -1.6738    1.2821 C   0  0  0  0  0  0  0  0  0  0  0  0
   -2.1616   -0.4422    0.9353 C   0  0  0  0  0  0  0  0  0  0  0  0
   -2.8404    0.4975   -0.3328 C   0  0  0  0  0  0  0  0  0  0  0  0
   -3.7201   -0.2125   -1.3799 C   0  0  0  0  0  0  0  0  0  0  0  0
   -3.7380    1.6326    0.2226 C   0  0  0  0  0  0  0  0  0  0  0  0
   -1.4456    0.8205   -0.8426 C   0  0  0  0  0  0  0  0  0  0  0  0
   -1.2628    1.5218    0.5117 O   0  0  0  0  0  0  0  0  0  0  0  0
   -0.2560    2.0161   -1.5397 C   0  0  0  0  0  0  0  0  0  0  0  0
    1.5542    1.5920   -1.1109 C   0  0  0  0  0  0  0  0  0  0  0  0
    2.4272    2.6821   -1.2942 O   0  0  0  0  0  0  0  0  0  0  0  0
    1.1392    1.4430    0.2336 C   0  0  0  0  0  0  0  0  0  0  0  0
    0.6031    2.6870    0.6755 O   0  0  0  0  0  0  0  0  0  0  0  0
    0.5174    0.0239   -0.7126 C   0  0  0  0  0  0  0  0  0  0  0  0
    0.1264    0.0676   -2.6099 C   0  0  0  0  0  0  0  0  0  0  0  0
    1.5339   -1.0160   -1.2175 C   0  0  0  0  0  0  0  0  0  0  0  0
    0.3425   -1.9470   -1.1639 C   0  0  0  0  0  0  0  0  0  0  0  0
   -0.9396   -1.0577   -0.8112 C   0  0  0  0  0  0  0  0  0  0  0  0
   -0.4862   -0.7102    0.4939 C   0  0  0  0  0  0  0  0  0  0  0  0
    0.6264   -1.1170    1.5400 C   0  0  0  0  0  0  0  0  0  0  0  0
    0.4082   -0.3221    2.8513 C   0  0  0  0  0  0  0  0  0  0  0  0
    0.5928   -2.5478    1.7618 O   0  0  0  0  0  0  0  0  0  0  0  0
   -0.2447   -3.1707    3.0640 Cl  0  0  0  0  0  0  0  0  0  0  0  0
    2.2511   -0.8180    0.9745 C   0  0  0  0  0  0  0  0  0  0  0  0
    3.2134   -0.2961    2.0651 C   0  0  0  0  0  0  0  0  0  0  0  0
    2.8447   -2.1357    0.7003 O   0  0  0  0  0  0  0  0  0  0  0  0
    2.3822   -0.0110   -0.5755 C   0  0  0  0  0  0  0  0  0  0  0  0
    3.8296    0.0250   -1.0703 C   0  0  0  0  0  0  0  0  0  0  0  0
   -2.9210   -2.4828    0.5536 H   0  0  0  0  0  0  0  0  0  0  0  0
   -2.6989   -2.0740    2.2535 H   0  0  0  0  0  0  0  0  0  0  0  0
   -4.0531   -1.3981    1.3679 H   0  0  0  0  0  0  0  0  0  0  0  0
   -2.1704    0.1640    1.8530 H   0  0  0  0  0  0  0  0  0  0  0  0
   -4.6535   -0.5670   -0.9289 H   0  0  0  0  0  0  0  0  0  0  0  0
   -3.9874    0.4965   -2.1738 H   0  0  0  0  0  0  0  0  0  0  0  0
   -3.2806   -1.0663   -1.8953 H   0  0  0  0  0  0  0  0  0  0  0  0
   -3.3392    2.1452    1.1026 H   0  0  0  0  0  0  0  0  0  0  0  0
   -4.7133    1.2351    0.5294 H   0  0  0  0  0  0  0  0  0  0  0  0
   -3.9169    2.3878   -0.5507 H   0  0  0  0  0  0  0  0  0  0  0  0
   -1.0249    2.4645    0.4506 H   0  0  0  0  0  0  0  0  0  0  0  0
   -0.4647    3.0365   -1.1785 H   0  0  0  0  0  0  0  0  0  0  0  0
   -0.3747    2.1909   -2.6189 H   0  0  0  0  0  0  0  0  0  0  0  0
    2.5479    2.7738   -2.2565 H   0  0  0  0  0  0  0  0  0  0  0  0
    1.9565    1.3379    0.9290 H   0  0  0  0  0  0  0  0  0  0  0  0
    1.3194    3.3363    0.5226 H   0  0  0  0  0  0  0  0  0  0  0  0
    0.8797    0.6723   -3.1410 H   0  0  0  0  0  0  0  0  0  0  0  0
   -0.9012    0.3416   -2.8905 H   0  0  0  0  0  0  0  0  0  0  0  0
    0.1980   -0.8888   -3.1468 H   0  0  0  0  0  0  0  0  0  0  0  0
    1.9354   -1.0819   -2.2358 H   0  0  0  0  0  0  0  0  0  0  0  0
    0.4864   -2.7873   -0.4796 H   0  0  0  0  0  0  0  0  0  0  0  0
    0.1812   -2.4720   -2.1167 H   0  0  0  0  0  0  0  0  0  0  0  0
   -1.7850   -1.7249   -0.9452 H   0  0  0  0  0  0  0  0  0  0  0  0
    0.5358    0.7533    2.7141 H   0  0  0  0  0  0  0  0  0  0  0  0
    1.0984   -0.6508    3.6364 H   0  0  0  0  0  0  0  0  0  0  0  0
   -0.5947   -0.4716    3.2618 H   0  0  0  0  0  0  0  0  0  0  0  0
    3.2856   -1.0230    2.8838 H   0  0  0  0  0  0  0  0  0  0  0  0
    4.2304   -0.1955    1.6729 H   0  0  0  0  0  0  0  0  0  0  0  0
    2.9298    0.6614    2.5057 H   0  0  0  0  0  0  0  0  0  0  0  0
    2.3804   -2.7790    1.2694 H   0  0  0  0  0  0  0  0  0  0  0  0
    4.4046    0.7706   -0.5106 H   0  0  0  0  0  0  0  0  0  0  0  0
    3.8772    0.3051   -2.1284 H   0  0  0  0  0  0  0  0  0  0  0  0
    4.3321   -0.9413   -0.9598 H   0  0  0  0  0  0  0  0  0  0  0  0
  2  1  1  0  0  0  0
  3  2  1  0  0  0  0
  4  3  1  0  0  0  0
  5  3  1  0  0  0  0
  6  3  1  0  0  0  0
  7  6  1  0  0  0  0
  8  6  1  0  0  0  0
  9  8  1  0  0  0  0
 10  9  1  0  0  0  0
 11  9  1  0  0  0  0
 12 11  1  0  0  0  0
 13 11  1  0  0  0  0
 14 13  1  0  0  0  0
 15 13  1  0  0  0  0
 16 15  1  0  0  0  0
 17 16  1  0  0  0  0
 17  6  1  0  0  0  0
 18 17  1  0  0  0  0
 18  2  1  0  0  0  0
 18 13  1  0  0  0  0
 19 18  1  0  0  0  0
 20 19  1  0  0  0  0
 21 19  1  0  0  0  0
 22 21  1  0  0  0  0
 23 19  1  0  0  0  0
 24 23  1  0  0  0  0
 25 23  1  0  0  0  0
 26 23  1  0  0  0  0
 26 15  1  0  0  0  0
 26  9  1  0  0  0  0
 27 26  1  0  0  0  0
  1 28  1  0  0  0  0
  1 29  1  0  0  0  0
  1 30  1  0  0  0  0
  2 31  1  0  0  0  0
  4 32  1  0  0  0  0
  4 33  1  0  0  0  0
  4 34  1  0  0  0  0
  5 35  1  0  0  0  0
  5 36  1  0  0  0  0
  5 37  1  0  0  0  0
  7 38  1  0  0  0  0
  8 39  1  0  0  0  0
  8 40  1  0  0  0  0
 10 41  1  0  0  0  0
 11 42  1  0  0  0  0
 12 43  1  0  0  0  0
 14 44  1  0  0  0  0
 14 45  1  0  0  0  0
 14 46  1  0  0  0  0
 15 47  1  0  0  0  0
 16 48  1  0  0  0  0
 16 49  1  0  0  0  0
 17 50  1  0  0  0  0
 20 51  1  0  0  0  0
 20 52  1  0  0  0  0
 20 53  1  0  0  0  0
 24 54  1  0  0  0  0
 24 55  1  0  0  0  0
 24 56  1  0  0  0  0
 25 57  1  0  0  0  0
 27 58  1  0  0  0  0
 27 59  1  0  0  0  0
 27 60  1  0  0  0  0
M  END
>  <energy>
954.89961063293765

$$$$
