N=C1NC(C2C3=NCCC2=NCCC3)CO1
                    3D

 32 34  0  0  0  0  0  0  0  0999 V2000
    4.7298    0.1655   -0.4339 N   0  0  0  0  0  0  0  0  0  0  0  0
    3.5078    0.4870   -0.5803 C   0  0  0  0  0  0  0  0  0  0  0  0
    2.4569    0.0584    0.1690 N   0  0  0  0  0  0  0  0  0  0  0  0
    1.2664    0.8313   -0.1675 C   0  0  0  0  0  0  0  0  0  0  0  0
    0.0205   -0.0411   -0.2647 C   0  0  0  0  0  0  0  0  0  0  0  0
   -0.4353   -0.5463    1.0807 C   0  0  0  0  0  0  0  0  0  0  0  0
   -0.9173    0.2442    1.9854 N   0  0  0  0  0  0  0  0  0  0  0  0
   -1.3265    1.6380    1.5926 C   0  0  0  0  0  0  0  0  0  0  0  0
   -1.5055    1.9074    0.0713 C   0  0  0  0  0  0  0  0  0  0  0  0
   -1.3170    0.5658   -0.5732 C   0  0  0  0  0  0  0  0  0  0  0  0
   -2.3686   -0.1066   -0.8753 N   0  0  0  0  0  0  0  0  0  0  0  0
   -2.4998   -1.5807   -0.8086 C   0  0  0  0  0  0  0  0  0  0  0  0
   -1.3815   -2.4571   -0.1947 C   0  0  0  0  0  0  0  0  0  0  0  0
   -0.7154   -2.0259    1.1413 C   0  0  0  0  0  0  0  0  0  0  0  0
    1.6845    1.4187   -1.5184 C   0  0  0  0  0  0  0  0  0  0  0  0
    3.1153    1.3631   -1.5381 O   0  0  0  0  0  0  0  0  0  0  0  0
    4.7757   -0.5150    0.3275 H   0  0  0  0  0  0  0  0  0  0  0  0
    2.6870   -0.0161    1.1575 H   0  0  0  0  0  0  0  0  0  0  0  0
    1.1737    1.6324    0.5682 H   0  0  0  0  0  0  0  0  0  0  0  0
    0.2326   -0.8273   -0.9863 H   0  0  0  0  0  0  0  0  0  0  0  0
   -0.6440    2.3653    2.0396 H   0  0  0  0  0  0  0  0  0  0  0  0
   -2.3059    1.8106    2.0647 H   0  0  0  0  0  0  0  0  0  0  0  0
   -0.7541    2.6154   -0.2891 H   0  0  0  0  0  0  0  0  0  0  0  0
   -2.4887    2.3304   -0.1560 H   0  0  0  0  0  0  0  0  0  0  0  0
   -3.4115   -1.7872   -0.2310 H   0  0  0  0  0  0  0  0  0  0  0  0
   -2.7070   -1.9363   -1.8228 H   0  0  0  0  0  0  0  0  0  0  0  0
   -1.7831   -3.4702   -0.0567 H   0  0  0  0  0  0  0  0  0  0  0  0
   -0.6063   -2.6007   -0.9612 H   0  0  0  0  0  0  0  0  0  0  0  0
    0.2242   -2.5670    1.2807 H   0  0  0  0  0  0  0  0  0  0  0  0
   -1.3750   -2.2500    1.9852 H   0  0  0  0  0  0  0  0  0  0  0  0
    1.3451    2.4513   -1.6319 H   0  0  0  0  0  0  0  0  0  0  0  0
    1.3229    0.8427   -2.3740 H   0  0  0  0  0  0  0  0  0  0  0  0
  2  1  2  0  0  0  0
  3  2  1  0  0  0  0
  4  3  1  0  0  0  0
  5  4  1  0  0  0  0
  6  5  1  0  0  0  0
  7  6  2  0  0  0  0
  8  7  1  0  0  0  0
  9  8  1  0  0  0  0
 10  9  1  0  0  0  0
 10  5  1  0  0  0  0
 11 10  2  0  0  0  0
 12 11  1  0  0  0  0
 13 12  1  0  0  0  0
 14 13  1  0  0  0  0
 14  6  1  0  0  0  0
 15  4  1  0  0  0  0
 16 15  1  0  0  0  0
 16  2  1  0  0  0  0
  1 17  1  0  0  0  0
  3 18  1  0  0  0  0
  4 19  1  0  0  0  0
  5 20  1  0  0  0  0
  8 21  1  0  0  0  0
  8 22  1  0  0  0  0
  9 23  1  0  0  0  0
  9 24  1  0  0  0  0
 12 25  1  0  0  0  0
 12 26  1  0  0  0  0
 13 27  1  0  0  0  0
 13 28  1  0  0  0  0
 14 29  1  0  0  0  0
 14 30  1  0  0  0  0
 15 31  1  0  0  0  0
 15 32  1  0  0  0  0
M  END
>  <energy>
8.3904806412517274

$$$$
