C#CC[N+]12CC[N+](CC3=CC=C(CCCNC(=S)NCCC)[n+]4ccc(O)c3c4)(CC1)CC2
                    3D

 71 74  0  0  0  0  0  0  0  0999 V2000
    4.8328    5.7994   -0.8072 C   0  0  0  0  0  0  0  0  0  0  0  0
    3.6277    5.7828   -0.7316 C   0  0  0  0  0  0  0  0  0  0  0  0
    2.1746    5.7276   -0.6298 C   0  0  0  0  0  0  0  0  0  0  0  0
    1.7155    4.2786   -0.4062 N   0  3  0  0  0  0  0  0  0  0  0  0
    2.1394    3.3566   -1.5925 C   0  0  0  0  0  0  0  0  0  0  0  0
    1.6762    1.8888   -1.3304 C   0  0  0  0  0  0  0  0  0  0  0  0
    0.8617    1.7920   -0.0148 N   0  3  0  0  0  0  0  0  0  0  0  0
    0.2664    0.4125    0.1826 C   0  0  0  0  0  0  0  0  0  0  0  0
    1.1470   -0.8168    0.3409 C   0  0  0  0  0  0  0  0  0  0  0  0
    1.3204   -1.3303    1.5971 C   0  0  0  0  0  0  0  0  0  0  0  0
    1.0161   -2.7098    2.0205 C   0  0  0  0  0  0  0  0  0  0  0  0
    0.6258   -3.7632    1.2669 C   0  0  0  0  0  0  0  0  0  0  0  0
   -0.3864   -4.7769    1.8134 C   0  0  0  0  0  0  0  0  0  0  0  0
   -1.8310   -4.3974    1.3908 C   0  0  0  0  0  0  0  0  0  0  0  0
   -2.5921   -3.6186    2.4862 C   0  0  0  0  0  0  0  0  0  0  0  0
   -3.9131   -3.0880    2.1235 N   0  0  0  0  0  0  0  0  0  0  0  0
   -4.1208   -2.0008    1.3092 C   0  0  0  0  0  0  0  0  0  0  0  0
   -4.9717   -0.7256    1.9312 S   0  0  0  0  0  0  0  0  0  0  0  0
   -3.6074   -2.1456    0.0494 N   0  0  0  0  0  0  0  0  0  0  0  0
   -3.8808   -1.3035   -1.1231 C   0  0  0  0  0  0  0  0  0  0  0  0
   -3.5670    0.1854   -0.9842 C   0  0  0  0  0  0  0  0  0  0  0  0
   -3.4955    0.8450   -2.3478 C   0  0  0  0  0  0  0  0  0  0  0  0
    0.9038   -3.7942   -0.1191 N   0  3  0  0  0  0  0  0  0  0  0  0
    2.1262   -4.2499   -0.4976 C   0  0  0  0  0  0  0  0  0  0  0  0
    2.9669   -3.3602   -1.2021 C   0  0  0  0  0  0  0  0  0  0  0  0
    2.5399   -2.0360   -1.3111 C   0  0  0  0  0  0  0  0  0  0  0  0
    3.3898   -1.0554   -1.7136 O   0  0  0  0  0  0  0  0  0  0  0  0
    1.2592   -1.6761   -0.8810 C   0  0  0  0  0  0  0  0  0  0  0  0
    0.3917   -2.7729   -0.8492 C   0  0  0  0  0  0  0  0  0  0  0  0
    1.7595    2.2468    1.1674 C   0  0  0  0  0  0  0  0  0  0  0  0
    2.3011    3.6917    0.9190 C   0  0  0  0  0  0  0  0  0  0  0  0
   -0.3468    2.8101   -0.1021 C   0  0  0  0  0  0  0  0  0  0  0  0
    0.1682    4.2567   -0.3059 C   0  0  0  0  0  0  0  0  0  0  0  0
    5.8975    5.8205   -0.8721 H   0  0  0  0  0  0  0  0  0  0  0  0
    1.6888    6.0760   -1.5458 H   0  0  0  0  0  0  0  0  0  0  0  0
    1.8048    6.3119    0.2173 H   0  0  0  0  0  0  0  0  0  0  0  0
    1.6772    3.7604   -2.4980 H   0  0  0  0  0  0  0  0  0  0  0  0
    3.2258    3.3908   -1.6855 H   0  0  0  0  0  0  0  0  0  0  0  0
    2.5456    1.2396   -1.2189 H   0  0  0  0  0  0  0  0  0  0  0  0
    1.0416    1.5252   -2.1467 H   0  0  0  0  0  0  0  0  0  0  0  0
   -0.4181    0.2599   -0.6631 H   0  0  0  0  0  0  0  0  0  0  0  0
   -0.3809    0.5024    1.0756 H   0  0  0  0  0  0  0  0  0  0  0  0
    1.2162   -0.6414    2.4338 H   0  0  0  0  0  0  0  0  0  0  0  0
    0.7954   -2.7631    3.0946 H   0  0  0  0  0  0  0  0  0  0  0  0
   -0.3132   -4.8513    2.9135 H   0  0  0  0  0  0  0  0  0  0  0  0
   -0.1233   -5.7763    1.4280 H   0  0  0  0  0  0  0  0  0  0  0  0
   -1.7853   -3.8037    0.4753 H   0  0  0  0  0  0  0  0  0  0  0  0
   -2.3924   -5.3125    1.1453 H   0  0  0  0  0  0  0  0  0  0  0  0
   -2.0099   -2.7662    2.8453 H   0  0  0  0  0  0  0  0  0  0  0  0
   -2.7601   -4.2956    3.3332 H   0  0  0  0  0  0  0  0  0  0  0  0
   -4.5090   -2.9874    2.9482 H   0  0  0  0  0  0  0  0  0  0  0  0
   -3.6659   -3.1314   -0.1831 H   0  0  0  0  0  0  0  0  0  0  0  0
   -4.9221   -1.4563   -1.4254 H   0  0  0  0  0  0  0  0  0  0  0  0
   -3.2455   -1.7327   -1.9082 H   0  0  0  0  0  0  0  0  0  0  0  0
   -4.3495    0.6932   -0.4139 H   0  0  0  0  0  0  0  0  0  0  0  0
   -2.6332    0.3396   -0.4351 H   0  0  0  0  0  0  0  0  0  0  0  0
   -3.3090    1.9154   -2.2500 H   0  0  0  0  0  0  0  0  0  0  0  0
   -2.6863    0.4102   -2.9399 H   0  0  0  0  0  0  0  0  0  0  0  0
   -4.4370    0.7109   -2.8887 H   0  0  0  0  0  0  0  0  0  0  0  0
    2.4900   -5.1964   -0.0891 H   0  0  0  0  0  0  0  0  0  0  0  0
    3.9691   -3.6717   -1.4877 H   0  0  0  0  0  0  0  0  0  0  0  0
    4.1687   -1.4484   -2.1582 H   0  0  0  0  0  0  0  0  0  0  0  0
    0.0196   -3.1303   -1.8182 H   0  0  0  0  0  0  0  0  0  0  0  0
    2.5817    1.5288    1.2534 H   0  0  0  0  0  0  0  0  0  0  0  0
    1.1466    2.2107    2.0734 H   0  0  0  0  0  0  0  0  0  0  0  0
    3.3897    3.6660    0.8231 H   0  0  0  0  0  0  0  0  0  0  0  0
    2.0167    4.3633    1.7311 H   0  0  0  0  0  0  0  0  0  0  0  0
   -0.9079    2.7227    0.8286 H   0  0  0  0  0  0  0  0  0  0  0  0
   -0.9711    2.4910   -0.9399 H   0  0  0  0  0  0  0  0  0  0  0  0
   -0.2318    4.6798   -1.2362 H   0  0  0  0  0  0  0  0  0  0  0  0
   -0.1210    4.8934    0.5353 H   0  0  0  0  0  0  0  0  0  0  0  0
  2  1  3  0  0  0  0
  3  2  1  0  0  0  0
  4  3  1  0  0  0  0
  5  4  1  0  0  0  0
  6  5  1  0  0  0  0
  7  6  1  0  0  0  0
  8  7  1  0  0  0  0
  9  8  1  0  0  0  0
 10  9  2  0  0  0  0
 11 10  1  0  0  0  0
 12 11  2  0  0  0  0
 13 12  1  0  0  0  0
 14 13  1  0  0  0  0
 15 14  1  0  0  0  0
 16 15  1  0  0  0  0
 17 16  1  0  0  0  0
 18 17  2  0  0  0  0
 19 17  1  0  0  0  0
 20 19  1  0  0  0  0
 21 20  1  0  0  0  0
 22 21  1  0  0  0  0
 23 12  1  0  0  0  0
 24 23  2  0  0  0  0
 25 24  1  0  0  0  0
 26 25  2  0  0  0  0
 27 26  1  0  0  0  0
 28 26  1  0  0  0  0
 28  9  1  0  0  0  0
 29 28  2  0  0  0  0
 29 23  1  0  0  0  0
 30  7  1  0  0  0  0
 31 30  1  0  0  0  0
 31  4  1  0  0  0  0
 32  7  1  0  0  0  0
 33 32  1  0  0  0  0
 33  4  1  0  0  0  0
  1 34  1  0  0  0  0
  3 35  1  0  0  0  0
  3 36  1  0  0  0  0
  5 37  1  0  0  0  0
  5 38  1  0  0  0  0
  6 39  1  0  0  0  0
  6 40  1  0  0  0  0
  8 41  1  0  0  0  0
  8 42  1  0  0  0  0
 10 43  1  0  0  0  0
 11 44  1  0  0  0  0
 13 45  1  0  0  0  0
 13 46  1  0  0  0  0
 14 47  1  0  0  0  0
 14 48  1  0  0  0  0
 15 49  1  0  0  0  0
 15 50  1  0  0  0  0
 16 51  1  0  0  0  0
 19 52  1  0  0  0  0
 20 53  1  0  0  0  0
 20 54  1  0  0  0  0
 21 55  1  0  0  0  0
 21 56  1  0  0  0  0
 22 57  1  0  0  0  0
 22 58  1  0  0  0  0
 22 59  1  0  0  0  0
 24 60  1  0  0  0  0
 25 61  1  0  0  0  0
 27 62  1  0  0  0  0
 29 63  1  0  0  0  0
 30 64  1  0  0  0  0
 30 65  1  0  0  0  0
 31 66  1  0  0  0  0
 31 67  1  0  0  0  0
 32 68  1  0  0  0  0
 32 69  1  0  0  0  0
 33 70  1  0  0  0  0
 33 71  1  0  0  0  0
M  CHG  3   4   1   7   1  23   1
M  END
>  <energy>
468.85066678316906

$$$$
