CCCCCCCC1CC(O)CC2(O)CC3C4OC(C(O)(CO)CCO)OC4C4(C)OC3C(C(C)(C)O)C4(CC#N)C1N2C
                    3D

100104  0  0  0  0  0  0  0  0999 V2000
   -5.2437    1.0893    1.8998 C   0  0  0  0  0  0  0  0  0  0  0  0
   -6.2964    0.2825    1.1440 C   0  0  0  0  0  0  0  0  0  0  0  0
   -5.7707   -1.0759    0.6694 C   0  0  0  0  0  0  0  0  0  0  0  0
   -4.7788   -0.9588   -0.4918 C   0  0  0  0  0  0  0  0  0  0  0  0
   -3.8194   -2.1490   -0.5501 C   0  0  0  0  0  0  0  0  0  0  0  0
   -2.5883   -1.8079   -1.3999 C   0  0  0  0  0  0  0  0  0  0  0  0
   -1.5773   -2.9452   -1.3947 C   0  0  0  0  0  0  0  0  0  0  0  0
   -0.0973   -2.5880   -1.6839 C   0  0  0  0  0  0  0  0  0  0  0  0
    0.0838   -2.2632   -3.2230 C   0  0  0  0  0  0  0  0  0  0  0  0
    1.4066   -1.7113   -3.8545 C   0  0  0  0  0  0  0  0  0  0  0  0
    1.1029   -1.5524   -5.2574 O   0  0  0  0  0  0  0  0  0  0  0  0
    2.0800   -0.3712   -3.3849 C   0  0  0  0  0  0  0  0  0  0  0  0
    2.3251   -0.3735   -1.8767 C   0  0  0  0  0  0  0  0  0  0  0  0
    3.1225   -1.5583   -1.7736 O   0  0  0  0  0  0  0  0  0  0  0  0
    3.1201    0.7026   -1.1263 C   0  0  0  0  0  0  0  0  0  0  0  0
    2.8628    0.8553    0.4538 C   0  0  0  0  0  0  0  0  0  0  0  0
    1.8105    1.9210    0.8032 C   0  0  0  0  0  0  0  0  0  0  0  0
    1.5446    2.9189   -0.1697 O   0  0  0  0  0  0  0  0  0  0  0  0
    0.1413    3.1833   -0.0952 C   0  0  0  0  0  0  0  0  0  0  0  0
   -0.1850    4.5421    0.6159 C   0  0  0  0  0  0  0  0  0  0  0  0
   -1.5500    4.9327    0.2780 O   0  0  0  0  0  0  0  0  0  0  0  0
   -0.1423    4.4671    2.1557 C   0  0  0  0  0  0  0  0  0  0  0  0
   -0.5124    5.7216    2.7368 O   0  0  0  0  0  0  0  0  0  0  0  0
    0.7433    5.6834    0.1263 C   0  0  0  0  0  0  0  0  0  0  0  0
    0.7980    5.8462   -1.3933 C   0  0  0  0  0  0  0  0  0  0  0  0
   -0.4964    5.8918   -1.9758 O   0  0  0  0  0  0  0  0  0  0  0  0
   -0.5421    2.0531    0.4980 O   0  0  0  0  0  0  0  0  0  0  0  0
    0.4636    1.3779    1.2412 C   0  0  0  0  0  0  0  0  0  0  0  0
    0.4205   -0.1241    1.6978 C   0  0  0  0  0  0  0  0  0  0  0  0
   -0.7856   -0.2395    2.6572 C   0  0  0  0  0  0  0  0  0  0  0  0
    1.6652    0.0316    2.5168 O   0  0  0  0  0  0  0  0  0  0  0  0
    2.7573   -0.2913    1.5689 C   0  0  0  0  0  0  0  0  0  0  0  0
    2.2998   -1.7338    1.4034 C   0  0  0  0  0  0  0  0  0  0  0  0
    3.4145   -2.7863    1.0802 C   0  0  0  0  0  0  0  0  0  0  0  0
    2.9539   -4.1123    0.4674 C   0  0  0  0  0  0  0  0  0  0  0  0
    4.1787   -3.1431    2.3882 C   0  0  0  0  0  0  0  0  0  0  0  0
    4.4061   -2.1958    0.2332 O   0  0  0  0  0  0  0  0  0  0  0  0
    0.7594   -1.5877    0.9086 C   0  0  0  0  0  0  0  0  0  0  0  0
   -0.0814   -2.7935    1.4450 C   0  0  0  0  0  0  0  0  0  0  0  0
    0.1442   -3.2591    2.8308 C   0  0  0  0  0  0  0  0  0  0  0  0
    0.3071   -3.6628    3.8999 N   0  0  0  0  0  0  0  0  0  0  0  0
    0.6869   -1.6564   -0.6765 C   0  0  0  0  0  0  0  0  0  0  0  0
    1.0457   -0.3765   -1.1928 N   0  0  0  0  0  0  0  0  0  0  0  0
   -0.0121    0.4301   -1.7875 C   0  0  0  0  0  0  0  0  0  0  0  0
   -4.8841    0.5364    2.7746 H   0  0  0  0  0  0  0  0  0  0  0  0
   -4.3797    1.3277    1.2725 H   0  0  0  0  0  0  0  0  0  0  0  0
   -5.6700    2.0355    2.2485 H   0  0  0  0  0  0  0  0  0  0  0  0
   -6.6721    0.8657    0.2950 H   0  0  0  0  0  0  0  0  0  0  0  0
   -7.1429    0.1131    1.8200 H   0  0  0  0  0  0  0  0  0  0  0  0
   -6.6167   -1.6933    0.3442 H   0  0  0  0  0  0  0  0  0  0  0  0
   -5.3126   -1.5921    1.5219 H   0  0  0  0  0  0  0  0  0  0  0  0
   -4.2003   -0.0351   -0.4092 H   0  0  0  0  0  0  0  0  0  0  0  0
   -5.3294   -0.8889   -1.4385 H   0  0  0  0  0  0  0  0  0  0  0  0
   -4.3329   -3.0358   -0.9424 H   0  0  0  0  0  0  0  0  0  0  0  0
   -3.4827   -2.3934    0.4650 H   0  0  0  0  0  0  0  0  0  0  0  0
   -2.8876   -1.5724   -2.4288 H   0  0  0  0  0  0  0  0  0  0  0  0
   -2.1463   -0.9120   -0.9744 H   0  0  0  0  0  0  0  0  0  0  0  0
   -1.6458   -3.4955   -0.4568 H   0  0  0  0  0  0  0  0  0  0  0  0
   -1.9040   -3.6802   -2.1427 H   0  0  0  0  0  0  0  0  0  0  0  0
    0.4018   -3.5680   -1.5970 H   0  0  0  0  0  0  0  0  0  0  0  0
   -0.1193   -3.2118   -3.7500 H   0  0  0  0  0  0  0  0  0  0  0  0
   -0.7578   -1.6547   -3.5769 H   0  0  0  0  0  0  0  0  0  0  0  0
    2.1436   -2.5220   -3.8015 H   0  0  0  0  0  0  0  0  0  0  0  0
    1.9495   -1.4460   -5.7231 H   0  0  0  0  0  0  0  0  0  0  0  0
    3.0398   -0.2942   -3.9134 H   0  0  0  0  0  0  0  0  0  0  0  0
    1.5164    0.4942   -3.7431 H   0  0  0  0  0  0  0  0  0  0  0  0
    3.7195   -1.4984   -0.9989 H   0  0  0  0  0  0  0  0  0  0  0  0
    4.1983    0.5119   -1.2411 H   0  0  0  0  0  0  0  0  0  0  0  0
    2.9665    1.6714   -1.6146 H   0  0  0  0  0  0  0  0  0  0  0  0
    3.8039    1.3597    0.7306 H   0  0  0  0  0  0  0  0  0  0  0  0
    2.2363    2.4701    1.6589 H   0  0  0  0  0  0  0  0  0  0  0  0
   -0.2356    3.2511   -1.1186 H   0  0  0  0  0  0  0  0  0  0  0  0
   -2.0927    4.1226    0.3569 H   0  0  0  0  0  0  0  0  0  0  0  0
   -0.8697    3.7417    2.5351 H   0  0  0  0  0  0  0  0  0  0  0  0
    0.8555    4.2138    2.5276 H   0  0  0  0  0  0  0  0  0  0  0  0
   -1.2985    6.0275    2.2438 H   0  0  0  0  0  0  0  0  0  0  0  0
    1.7640    5.5451    0.5048 H   0  0  0  0  0  0  0  0  0  0  0  0
    0.3813    6.6372    0.5302 H   0  0  0  0  0  0  0  0  0  0  0  0
    1.3142    6.7778   -1.6467 H   0  0  0  0  0  0  0  0  0  0  0  0
    1.3533    5.0253   -1.8579 H   0  0  0  0  0  0  0  0  0  0  0  0
   -1.1520    5.7630   -1.2572 H   0  0  0  0  0  0  0  0  0  0  0  0
    0.3524    1.8904    2.2119 H   0  0  0  0  0  0  0  0  0  0  0  0
   -0.6123   -0.9679    3.4531 H   0  0  0  0  0  0  0  0  0  0  0  0
   -1.7070   -0.4775    2.1135 H   0  0  0  0  0  0  0  0  0  0  0  0
   -0.9717    0.6915    3.2095 H   0  0  0  0  0  0  0  0  0  0  0  0
    3.6701   -0.2431    2.1727 H   0  0  0  0  0  0  0  0  0  0  0  0
    2.1240   -2.0369    2.4468 H   0  0  0  0  0  0  0  0  0  0  0  0
    2.6280   -4.0094   -0.5692 H   0  0  0  0  0  0  0  0  0  0  0  0
    2.1630   -4.5924    1.0494 H   0  0  0  0  0  0  0  0  0  0  0  0
    3.7947   -4.8176    0.4225 H   0  0  0  0  0  0  0  0  0  0  0  0
    3.5123   -3.5390    3.1625 H   0  0  0  0  0  0  0  0  0  0  0  0
    4.9420   -3.9074    2.2016 H   0  0  0  0  0  0  0  0  0  0  0  0
    4.7113   -2.2764    2.7956 H   0  0  0  0  0  0  0  0  0  0  0  0
    5.1288   -2.8495    0.1467 H   0  0  0  0  0  0  0  0  0  0  0  0
   -1.1427   -2.5536    1.3465 H   0  0  0  0  0  0  0  0  0  0  0  0
    0.1076   -3.6722    0.8194 H   0  0  0  0  0  0  0  0  0  0  0  0
    1.5698   -2.2751   -0.7408 H   0  0  0  0  0  0  0  0  0  0  0  0
   -0.4841    0.0319   -2.6810 H   0  0  0  0  0  0  0  0  0  0  0  0
    0.3650    1.4129   -2.0794 H   0  0  0  0  0  0  0  0  0  0  0  0
   -0.8269    0.5808   -1.0897 H   0  0  0  0  0  0  0  0  0  0  0  0
  2  1  1  0  0  0  0
  3  2  1  0  0  0  0
  4  3  1  0  0  0  0
  5  4  1  0  0  0  0
  6  5  1  0  0  0  0
  7  6  1  0  0  0  0
  8  7  1  0  0  0  0
  9  8  1  0  0  0  0
 10  9  1  0  0  0  0
 11 10  1  0  0  0  0
 12 10  1  0  0  0  0
 13 12  1  0  0  0  0
 14 13  1  0  0  0  0
 15 13  1  0  0  0  0
 16 15  1  0  0  0  0
 17 16  1  0  0  0  0
 18 17  1  0  0  0  0
 19 18  1  0  0  0  0
 20 19  1  0  0  0  0
 21 20  1  0  0  0  0
 22 20  1  0  0  0  0
 23 22  1  0  0  0  0
 24 20  1  0  0  0  0
 25 24  1  0  0  0  0
 26 25  1  0  0  0  0
 27 19  1  0  0  0  0
 28 27  1  0  0  0  0
 28 17  1  0  0  0  0
 29 28  1  0  0  0  0
 30 29  1  0  0  0  0
 31 29  1  0  0  0  0
 32 31  1  0  0  0  0
 32 16  1  0  0  0  0
 33 32  1  0  0  0  0
 34 33  1  0  0  0  0
 35 34  1  0  0  0  0
 36 34  1  0  0  0  0
 37 34  1  0  0  0  0
 38 33  1  0  0  0  0
 38 29  1  0  0  0  0
 39 38  1  0  0  0  0
 40 39  1  0  0  0  0
 41 40  3  0  0  0  0
 42 38  1  0  0  0  0
 42  8  1  0  0  0  0
 43 42  1  0  0  0  0
 43 13  1  0  0  0  0
 44 43  1  0  0  0  0
  1 45  1  0  0  0  0
  1 46  1  0  0  0  0
  1 47  1  0  0  0  0
  2 48  1  0  0  0  0
  2 49  1  0  0  0  0
  3 50  1  0  0  0  0
  3 51  1  0  0  0  0
  4 52  1  0  0  0  0
  4 53  1  0  0  0  0
  5 54  1  0  0  0  0
  5 55  1  0  0  0  0
  6 56  1  0  0  0  0
  6 57  1  0  0  0  0
  7 58  1  0  0  0  0
  7 59  1  0  0  0  0
  8 60  1  0  0  0  0
  9 61  1  0  0  0  0
  9 62  1  0  0  0  0
 10 63  1  0  0  0  0
 11 64  1  0  0  0  0
 12 65  1  0  0  0  0
 12 66  1  0  0  0  0
 14 67  1  0  0  0  0
 15 68  1  0  0  0  0
 15 69  1  0  0  0  0
 16 70  1  0  0  0  0
 17 71  1  0  0  0  0
 19 72  1  0  0  0  0
 21 73  1  0  0  0  0
 22 74  1  0  0  0  0
 22 75  1  0  0  0  0
 23 76  1  0  0  0  0
 24 77  1  0  0  0  0
 24 78  1  0  0  0  0
 25 79  1  0  0  0  0
 25 80  1  0  0  0  0
 26 81  1  0  0  0  0
 28 82  1  0  0  0  0
 30 83  1  0  0  0  0
 30 84  1  0  0  0  0
 30 85  1  0  0  0  0
 32 86  1  0  0  0  0
 33 87  1  0  0  0  0
 35 88  1  0  0  0  0
 35 89  1  0  0  0  0
 35 90  1  0  0  0  0
 36 91  1  0  0  0  0
 36 92  1  0  0  0  0
 36 93  1  0  0  0  0
 37 94  1  0  0  0  0
 39 95  1  0  0  0  0
 39 96  1  0  0  0  0
 42 97  1  0  0  0  0
 44 98  1  0  0  0  0
 44 99  1  0  0  0  0
 44100  1  0  0  0  0
M  END
>  <energy>
294.49731266863631

$$$$
