CON1CC(O)C2C3C4OCCC4(OC)C3C21
                    3D

 36 39  0  0  0  0  0  0  0  0999 V2000
    0.6499    3.2292   -0.0770 C   0  0  0  0  0  0  0  0  0  0  0  0
    1.5630    2.3292    0.5417 O   0  0  0  0  0  0  0  0  0  0  0  0
    1.3568    1.0008   -0.0244 N   0  0  0  0  0  0  0  0  0  0  0  0
    2.6556    0.6110   -0.5936 C   0  0  0  0  0  0  0  0  0  0  0  0
    2.6412   -0.9235   -0.5745 C   0  0  0  0  0  0  0  0  0  0  0  0
    3.9482   -1.4432   -0.3408 O   0  0  0  0  0  0  0  0  0  0  0  0
    1.7477   -1.2723    0.6091 C   0  0  0  0  0  0  0  0  0  0  0  0
    0.2803   -1.7729    0.4322 C   0  0  0  0  0  0  0  0  0  0  0  0
   -0.4732   -1.1832   -0.7455 C   0  0  0  0  0  0  0  0  0  0  0  0
   -1.3743   -1.7867   -1.6825 O   0  0  0  0  0  0  0  0  0  0  0  0
   -2.3788   -0.7554   -1.8863 C   0  0  0  0  0  0  0  0  0  0  0  0
   -1.9877    0.3811   -0.8813 C   0  0  0  0  0  0  0  0  0  0  0  0
   -1.3817   -0.4127    0.2781 C   0  0  0  0  0  0  0  0  0  0  0  0
   -2.5067   -1.1591    0.8680 O   0  0  0  0  0  0  0  0  0  0  0  0
   -3.3141   -0.4483    1.7980 C   0  0  0  0  0  0  0  0  0  0  0  0
   -0.1747   -0.5150    1.2644 C   0  0  0  0  0  0  0  0  0  0  0  0
    1.2083    0.0911    1.1143 C   0  0  0  0  0  0  0  0  0  0  0  0
   -0.3796    2.9646    0.1830 H   0  0  0  0  0  0  0  0  0  0  0  0
    0.7814    3.2275   -1.1640 H   0  0  0  0  0  0  0  0  0  0  0  0
    0.8555    4.2362    0.2953 H   0  0  0  0  0  0  0  0  0  0  0  0
    2.7640    0.9866   -1.6162 H   0  0  0  0  0  0  0  0  0  0  0  0
    3.5002    0.9955   -0.0062 H   0  0  0  0  0  0  0  0  0  0  0  0
    2.2651   -1.3504   -1.5092 H   0  0  0  0  0  0  0  0  0  0  0  0
    4.5088   -1.1670   -1.0846 H   0  0  0  0  0  0  0  0  0  0  0  0
    2.2645   -1.8371    1.3970 H   0  0  0  0  0  0  0  0  0  0  0  0
   -0.0096   -2.7525    0.8133 H   0  0  0  0  0  0  0  0  0  0  0  0
    0.1869   -0.5668   -1.3665 H   0  0  0  0  0  0  0  0  0  0  0  0
   -2.3541   -0.4075   -2.9222 H   0  0  0  0  0  0  0  0  0  0  0  0
   -3.3585   -1.1841   -1.6545 H   0  0  0  0  0  0  0  0  0  0  0  0
   -2.8631    0.9745   -0.5994 H   0  0  0  0  0  0  0  0  0  0  0  0
   -1.2682    1.0728   -1.3372 H   0  0  0  0  0  0  0  0  0  0  0  0
   -2.7231    0.2742    2.3682 H   0  0  0  0  0  0  0  0  0  0  0  0
   -3.7635   -1.1666    2.4878 H   0  0  0  0  0  0  0  0  0  0  0  0
   -4.1132    0.0712    1.2636 H   0  0  0  0  0  0  0  0  0  0  0  0
   -0.4272   -0.7653    2.3018 H   0  0  0  0  0  0  0  0  0  0  0  0
    1.6738    0.4244    2.0500 H   0  0  0  0  0  0  0  0  0  0  0  0
  2  1  1  0  0  0  0
  3  2  1  0  0  0  0
  4  3  1  0  0  0  0
  5  4  1  0  0  0  0
  6  5  1  0  0  0  0
  7  5  1  0  0  0  0
  8  7  1  0  0  0  0
  9  8  1  0  0  0  0
 10  9  1  0  0  0  0
 11 10  1  0  0  0  0
 12 11  1  0  0  0  0
 13 12  1  0  0  0  0
 13  9  1  0  0  0  0
 14 13  1  0  0  0  0
 15 14  1  0  0  0  0
 16 13  1  0  0  0  0
 16  8  1  0  0  0  0
 17 16  1  0  0  0  0
 17  7  1  0  0  0  0
 17  3  1  0  0  0  0
  1 18  1  0  0  0  0
  1 19  1  0  0  0  0
  1 20  1  0  0  0  0
  4 21  1  0  0  0  0
  4 22  1  0  0  0  0
  5 23  1  0  0  0  0
  6 24  1  0  0  0  0
  7 25  1  0  0  0  0
  8 26  1  0  0  0  0
  9 27  1  0  0  0  0
 11 28  1  0  0  0  0
 11 29  1  0  0  0  0
 12 30  1  0  0  0  0
 12 31  1  0  0  0  0
 15 32  1  0  0  0  0
 15 33  1  0  0  0  0
 15 34  1  0  0  0  0
 16 35  1  0  0  0  0
 17 36  1  0  0  0  0
M  END
>  <energy>
123.83024278145284

$$$$
