CC12CCC3C(F)=C(OC(=O)CCl)C4(CC1)CC32OO4
                    3D

 36 39  0  0  0  0  0  0  0  0999 V2000
    2.5326   -0.1632    1.9180 C   0  0  0  0  0  0  0  0  0  0  0  0
    2.1528    0.0473    0.4522 C   0  0  0  0  0  0  0  0  0  0  0  0
    2.8344   -1.0499   -0.4328 C   0  0  0  0  0  0  0  0  0  0  0  0
    1.7209   -2.1728   -0.7319 C   0  0  0  0  0  0  0  0  0  0  0  0
    0.4099   -1.7079   -0.0480 C   0  0  0  0  0  0  0  0  0  0  0  0
   -1.0134   -1.4939   -0.6476 C   0  0  0  0  0  0  0  0  0  0  0  0
   -1.7383   -2.5768   -1.0121 F   0  0  0  0  0  0  0  0  0  0  0  0
   -1.6060   -0.2378   -0.6836 C   0  0  0  0  0  0  0  0  0  0  0  0
   -2.9340   -0.1212   -1.1569 O   0  0  0  0  0  0  0  0  0  0  0  0
   -3.7897    0.5736   -0.3395 C   0  0  0  0  0  0  0  0  0  0  0  0
   -3.4525    1.3078    0.5833 O   0  0  0  0  0  0  0  0  0  0  0  0
   -5.2072    0.2768   -0.7843 C   0  0  0  0  0  0  0  0  0  0  0  0
   -6.3185    0.3405    0.5980 Cl  0  0  0  0  0  0  0  0  0  0  0  0
   -0.8172    1.2203   -0.2971 C   0  0  0  0  0  0  0  0  0  0  0  0
    0.5644    2.2705   -0.0574 C   0  0  0  0  0  0  0  0  0  0  0  0
    2.1200    1.5915    0.0673 C   0  0  0  0  0  0  0  0  0  0  0  0
   -0.2545    0.4547    0.8744 C   0  0  0  0  0  0  0  0  0  0  0  0
    0.7748   -0.2816    0.0596 C   0  0  0  0  0  0  0  0  0  0  0  0
    0.8121    0.1215   -1.4188 O   0  0  0  0  0  0  0  0  0  0  0  0
   -0.2481    1.0711   -1.6315 O   0  0  0  0  0  0  0  0  0  0  0  0
    3.6111   -0.0220    2.0426 H   0  0  0  0  0  0  0  0  0  0  0  0
    2.0418    0.5489    2.5856 H   0  0  0  0  0  0  0  0  0  0  0  0
    2.2840   -1.1710    2.2642 H   0  0  0  0  0  0  0  0  0  0  0  0
    3.6972   -1.5036    0.0693 H   0  0  0  0  0  0  0  0  0  0  0  0
    3.2008   -0.6334   -1.3796 H   0  0  0  0  0  0  0  0  0  0  0  0
    1.5974   -2.3129   -1.8112 H   0  0  0  0  0  0  0  0  0  0  0  0
    2.0480   -3.1311   -0.3129 H   0  0  0  0  0  0  0  0  0  0  0  0
    0.3132   -2.2022    0.9257 H   0  0  0  0  0  0  0  0  0  0  0  0
   -5.5283    0.9999   -1.5378 H   0  0  0  0  0  0  0  0  0  0  0  0
   -5.2688   -0.7356   -1.1959 H   0  0  0  0  0  0  0  0  0  0  0  0
    0.6074    3.0077   -0.8735 H   0  0  0  0  0  0  0  0  0  0  0  0
    0.3875    2.8743    0.8469 H   0  0  0  0  0  0  0  0  0  0  0  0
    2.6819    2.1851    0.7980 H   0  0  0  0  0  0  0  0  0  0  0  0
    2.6194    1.7368   -0.9003 H   0  0  0  0  0  0  0  0  0  0  0  0
    0.1264    1.0533    1.7131 H   0  0  0  0  0  0  0  0  0  0  0  0
   -0.9616   -0.1648    1.4543 H   0  0  0  0  0  0  0  0  0  0  0  0
  2  1  1  0  0  0  0
  3  2  1  0  0  0  0
  4  3  1  0  0  0  0
  5  4  1  0  0  0  0
  6  5  1  0  0  0  0
  7  6  1  0  0  0  0
  8  6  2  0  0  0  0
  9  8  1  0  0  0  0
 10  9  1  0  0  0  0
 11 10  2  0  0  0  0
 12 10  1  0  0  0  0
 13 12  1  0  0  0  0
 14  8  1  0  0  0  0
 15 14  1  0  0  0  0
 16 15  1  0  0  0  0
 16  2  1  0  0  0  0
 17 14  1  0  0  0  0
 18 17  1  0  0  0  0
 18  5  1  0  0  0  0
 18  2  1  0  0  0  0
 19 18  1  0  0  0  0
 20 19  1  0  0  0  0
 20 14  1  0  0  0  0
  1 21  1  0  0  0  0
  1 22  1  0  0  0  0
  1 23  1  0  0  0  0
  3 24  1  0  0  0  0
  3 25  1  0  0  0  0
  4 26  1  0  0  0  0
  4 27  1  0  0  0  0
  5 28  1  0  0  0  0
 12 29  1  0  0  0  0
 12 30  1  0  0  0  0
 15 31  1  0  0  0  0
 15 32  1  0  0  0  0
 16 33  1  0  0  0  0
 16 34  1  0  0  0  0
 17 35  1  0  0  0  0
 17 36  1  0  0  0  0
M  END
>  <energy>
293.86618266524266

$$$$
