CC(=O)NC(C)(C(=O)O)C(=O)NC1CC23CCC(CC(C2)C3)C1C(N)=O
                    3D

 53 55  0  0  0  0  0  0  0  0999 V2000
   -3.8372   -1.3328   -0.8631 C   0  0  0  0  0  0  0  0  0  0  0  0
   -3.1091   -0.0219   -0.7378 C   0  0  0  0  0  0  0  0  0  0  0  0
   -2.3650    0.4057   -1.6096 O   0  0  0  0  0  0  0  0  0  0  0  0
   -3.3080    0.5960    0.4791 N   0  0  0  0  0  0  0  0  0  0  0  0
   -2.6920    1.9260    0.7844 C   0  0  0  0  0  0  0  0  0  0  0  0
   -2.8367    2.1425    2.3045 C   0  0  0  0  0  0  0  0  0  0  0  0
   -3.4956    3.0530    0.1254 C   0  0  0  0  0  0  0  0  0  0  0  0
   -4.6390    2.9420   -0.2965 O   0  0  0  0  0  0  0  0  0  0  0  0
   -2.9041    4.2643    0.1629 O   0  0  0  0  0  0  0  0  0  0  0  0
   -1.1712    1.9224    0.4538 C   0  0  0  0  0  0  0  0  0  0  0  0
   -0.6060    2.7837   -0.2241 O   0  0  0  0  0  0  0  0  0  0  0  0
   -0.4507    0.8744    1.0223 N   0  0  0  0  0  0  0  0  0  0  0  0
    0.9764    0.6749    0.6738 C   0  0  0  0  0  0  0  0  0  0  0  0
    1.6263   -0.2286    1.7857 C   0  0  0  0  0  0  0  0  0  0  0  0
    2.0391   -1.5410    1.1414 C   0  0  0  0  0  0  0  0  0  0  0  0
    0.7142   -2.1826    0.6228 C   0  0  0  0  0  0  0  0  0  0  0  0
    0.5996   -2.1875   -0.8817 C   0  0  0  0  0  0  0  0  0  0  0  0
    1.4874   -1.1142   -1.4909 C   0  0  0  0  0  0  0  0  0  0  0  0
    2.9495   -1.6620   -1.5696 C   0  0  0  0  0  0  0  0  0  0  0  0
    3.6165   -2.0630   -0.2424 C   0  0  0  0  0  0  0  0  0  0  0  0
    3.4823   -0.8794    0.6567 C   0  0  0  0  0  0  0  0  0  0  0  0
    2.9831   -2.8178    0.9859 C   0  0  0  0  0  0  0  0  0  0  0  0
    1.1332    0.3074   -0.8842 C   0  0  0  0  0  0  0  0  0  0  0  0
    1.9017    1.4133   -1.6129 C   0  0  0  0  0  0  0  0  0  0  0  0
    1.1308    2.1777   -2.4593 N   0  0  0  0  0  0  0  0  0  0  0  0
    3.0988    1.6382   -1.4649 O   0  0  0  0  0  0  0  0  0  0  0  0
   -4.8859   -1.1563   -1.1022 H   0  0  0  0  0  0  0  0  0  0  0  0
   -3.7681   -1.8979    0.0707 H   0  0  0  0  0  0  0  0  0  0  0  0
   -3.3718   -1.9389   -1.6442 H   0  0  0  0  0  0  0  0  0  0  0  0
   -4.2734    0.5053    0.7848 H   0  0  0  0  0  0  0  0  0  0  0  0
   -2.1971    2.9631    2.6435 H   0  0  0  0  0  0  0  0  0  0  0  0
   -3.8673    2.3845    2.5847 H   0  0  0  0  0  0  0  0  0  0  0  0
   -2.5511    1.2422    2.8612 H   0  0  0  0  0  0  0  0  0  0  0  0
   -3.4819    4.8806   -0.3337 H   0  0  0  0  0  0  0  0  0  0  0  0
   -0.9994    0.0621    1.2959 H   0  0  0  0  0  0  0  0  0  0  0  0
    1.4285    1.6666    0.8141 H   0  0  0  0  0  0  0  0  0  0  0  0
    0.9329   -0.3972    2.6270 H   0  0  0  0  0  0  0  0  0  0  0  0
    2.4596    0.3239    2.2478 H   0  0  0  0  0  0  0  0  0  0  0  0
   -0.1709   -1.6822    1.0300 H   0  0  0  0  0  0  0  0  0  0  0  0
    0.5674   -3.1964    1.0209 H   0  0  0  0  0  0  0  0  0  0  0  0
   -0.4466   -2.0312   -1.1803 H   0  0  0  0  0  0  0  0  0  0  0  0
    0.8740   -3.1789   -1.2722 H   0  0  0  0  0  0  0  0  0  0  0  0
    1.1950   -1.0366   -2.5489 H   0  0  0  0  0  0  0  0  0  0  0  0
    3.5846   -0.9248   -2.0890 H   0  0  0  0  0  0  0  0  0  0  0  0
    2.9498   -2.5527   -2.2162 H   0  0  0  0  0  0  0  0  0  0  0  0
    4.6508   -2.3745   -0.4273 H   0  0  0  0  0  0  0  0  0  0  0  0
    3.5322    0.0911    0.1670 H   0  0  0  0  0  0  0  0  0  0  0  0
    4.2452   -0.8263    1.4541 H   0  0  0  0  0  0  0  0  0  0  0  0
    2.5502   -3.7850    0.7046 H   0  0  0  0  0  0  0  0  0  0  0  0
    3.6455   -3.0034    1.8426 H   0  0  0  0  0  0  0  0  0  0  0  0
    0.1068    0.4216   -1.2537 H   0  0  0  0  0  0  0  0  0  0  0  0
    0.5024    1.6169   -3.0265 H   0  0  0  0  0  0  0  0  0  0  0  0
    0.4644    2.7337   -1.9165 H   0  0  0  0  0  0  0  0  0  0  0  0
  2  1  1  0  0  0  0
  3  2  2  0  0  0  0
  4  2  1  0  0  0  0
  5  4  1  0  0  0  0
  6  5  1  0  0  0  0
  7  5  1  0  0  0  0
  8  7  2  0  0  0  0
  9  7  1  0  0  0  0
 10  5  1  0  0  0  0
 11 10  2  0  0  0  0
 12 10  1  0  0  0  0
 13 12  1  0  0  0  0
 14 13  1  0  0  0  0
 15 14  1  0  0  0  0
 16 15  1  0  0  0  0
 17 16  1  0  0  0  0
 18 17  1  0  0  0  0
 19 18  1  0  0  0  0
 20 19  1  0  0  0  0
 21 20  1  0  0  0  0
 21 15  1  0  0  0  0
 22 20  1  0  0  0  0
 22 15  1  0  0  0  0
 23 18  1  0  0  0  0
 23 13  1  0  0  0  0
 24 23  1  0  0  0  0
 25 24  1  0  0  0  0
 26 24  2  0  0  0  0
  1 27  1  0  0  0  0
  1 28  1  0  0  0  0
  1 29  1  0  0  0  0
  4 30  1  0  0  0  0
  6 31  1  0  0  0  0
  6 32  1  0  0  0  0
  6 33  1  0  0  0  0
  9 34  1  0  0  0  0
 12 35  1  0  0  0  0
 13 36  1  0  0  0  0
 14 37  1  0  0  0  0
 14 38  1  0  0  0  0
 16 39  1  0  0  0  0
 16 40  1  0  0  0  0
 17 41  1  0  0  0  0
 17 42  1  0  0  0  0
 18 43  1  0  0  0  0
 19 44  1  0  0  0  0
 19 45  1  0  0  0  0
 20 46  1  0  0  0  0
 21 47  1  0  0  0  0
 21 48  1  0  0  0  0
 22 49  1  0  0  0  0
 22 50  1  0  0  0  0
 23 51  1  0  0  0  0
 25 52  1  0  0  0  0
 25 53  1  0  0  0  0
M  END
>  <energy>
115.12330584621202

$$$$
