OCC1C(O)CC(NC2C3CC4CC2C43)C(O)C1O
                    3D

 42 45  0  0  0  0  0  0  0  0999 V2000
    4.4813    2.1264   -1.1631 O   0  0  0  0  0  0  0  0  0  0  0  0
    3.5099    1.9365   -0.1342 C   0  0  0  0  0  0  0  0  0  0  0  0
    2.8626    0.5563   -0.2816 C   0  0  0  0  0  0  0  0  0  0  0  0
    2.1713    0.3889   -1.6457 C   0  0  0  0  0  0  0  0  0  0  0  0
    1.1656    1.3897   -1.8304 O   0  0  0  0  0  0  0  0  0  0  0  0
    1.5456   -1.0071   -1.7866 C   0  0  0  0  0  0  0  0  0  0  0  0
    0.5267   -1.3176   -0.6650 C   0  0  0  0  0  0  0  0  0  0  0  0
   -0.6828   -0.4954   -0.9033 N   0  0  0  0  0  0  0  0  0  0  0  0
   -1.7337   -0.7666    0.0960 C   0  0  0  0  0  0  0  0  0  0  0  0
   -3.1140   -0.6160   -0.5951 C   0  0  0  0  0  0  0  0  0  0  0  0
   -4.2877   -0.9812    0.3406 C   0  0  0  0  0  0  0  0  0  0  0  0
   -4.1410    0.3881    1.0335 C   0  0  0  0  0  0  0  0  0  0  0  0
   -2.9588    0.4451    2.0199 C   0  0  0  0  0  0  0  0  0  0  0  0
   -1.9892    0.5734    0.8294 C   0  0  0  0  0  0  0  0  0  0  0  0
   -3.1961    0.8181   -0.0819 C   0  0  0  0  0  0  0  0  0  0  0  0
    1.2070   -1.1044    0.7149 C   0  0  0  0  0  0  0  0  0  0  0  0
    2.2470   -2.0899    0.8998 O   0  0  0  0  0  0  0  0  0  0  0  0
    1.8649    0.2845    0.8582 C   0  0  0  0  0  0  0  0  0  0  0  0
    2.5486    0.3298    2.1186 O   0  0  0  0  0  0  0  0  0  0  0  0
    4.7313    3.0649   -1.1356 H   0  0  0  0  0  0  0  0  0  0  0  0
    4.0387    2.0235    0.8202 H   0  0  0  0  0  0  0  0  0  0  0  0
    2.7687    2.7406   -0.2018 H   0  0  0  0  0  0  0  0  0  0  0  0
    3.6768   -0.1815   -0.2279 H   0  0  0  0  0  0  0  0  0  0  0  0
    2.8999    0.5278   -2.4503 H   0  0  0  0  0  0  0  0  0  0  0  0
    0.3461    1.0697   -1.3975 H   0  0  0  0  0  0  0  0  0  0  0  0
    1.0563   -1.0886   -2.7655 H   0  0  0  0  0  0  0  0  0  0  0  0
    2.3416   -1.7631   -1.7808 H   0  0  0  0  0  0  0  0  0  0  0  0
    0.2508   -2.3738   -0.7702 H   0  0  0  0  0  0  0  0  0  0  0  0
   -0.9958   -0.6757   -1.8625 H   0  0  0  0  0  0  0  0  0  0  0  0
   -1.6192   -1.6726    0.6989 H   0  0  0  0  0  0  0  0  0  0  0  0
   -3.2340   -0.8183   -1.6587 H   0  0  0  0  0  0  0  0  0  0  0  0
   -5.2396   -1.0975   -0.1898 H   0  0  0  0  0  0  0  0  0  0  0  0
   -4.1485   -1.8586    0.9807 H   0  0  0  0  0  0  0  0  0  0  0  0
   -5.0323    0.9815    1.2342 H   0  0  0  0  0  0  0  0  0  0  0  0
   -2.8252   -0.4266    2.6680 H   0  0  0  0  0  0  0  0  0  0  0  0
   -2.9708    1.3402    2.6532 H   0  0  0  0  0  0  0  0  0  0  0  0
   -1.2163    1.3410    0.8771 H   0  0  0  0  0  0  0  0  0  0  0  0
   -3.3270    1.6916   -0.7093 H   0  0  0  0  0  0  0  0  0  0  0  0
    0.5043   -1.2597    1.5420 H   0  0  0  0  0  0  0  0  0  0  0  0
    1.8429   -2.9682    0.7877 H   0  0  0  0  0  0  0  0  0  0  0  0
    1.0989    1.0669    0.8833 H   0  0  0  0  0  0  0  0  0  0  0  0
    3.0251   -0.5220    2.1805 H   0  0  0  0  0  0  0  0  0  0  0  0
  2  1  1  0  0  0  0
  3  2  1  0  0  0  0
  4  3  1  0  0  0  0
  5  4  1  0  0  0  0
  6  4  1  0  0  0  0
  7  6  1  0  0  0  0
  8  7  1  0  0  0  0
  9  8  1  0  0  0  0
 10  9  1  0  0  0  0
 11 10  1  0  0  0  0
 12 11  1  0  0  0  0
 13 12  1  0  0  0  0
 14 13  1  0  0  0  0
 14  9  1  0  0  0  0
 15 14  1  0  0  0  0
 15 12  1  0  0  0  0
 15 10  1  0  0  0  0
 16  7  1  0  0  0  0
 17 16  1  0  0  0  0
 18 16  1  0  0  0  0
 18  3  1  0  0  0  0
 19 18  1  0  0  0  0
  1 20  1  0  0  0  0
  2 21  1  0  0  0  0
  2 22  1  0  0  0  0
  3 23  1  0  0  0  0
  4 24  1  0  0  0  0
  5 25  1  0  0  0  0
  6 26  1  0  0  0  0
  6 27  1  0  0  0  0
  7 28  1  0  0  0  0
  8 29  1  0  0  0  0
  9 30  1  0  0  0  0
 10 31  1  0  0  0  0
 11 32  1  0  0  0  0
 11 33  1  0  0  0  0
 12 34  1  0  0  0  0
 13 35  1  0  0  0  0
 13 36  1  0  0  0  0
 14 37  1  0  0  0  0
 15 38  1  0  0  0  0
 16 39  1  0  0  0  0
 17 40  1  0  0  0  0
 18 41  1  0  0  0  0
 19 42  1  0  0  0  0
M  END
>  <energy>
90.058433519154931

$$$$
