CC(=O)OC1CCC2(CO)c3c(O)c4c(c(CC=C(C)C)c31)OC(=N)C(CC=C(C)C)C(=CC2C)C4=O
                    3D

 74 77  0  0  0  0  0  0  0  0999 V2000
    4.1450   -4.4114    1.3870 C   0  0  0  0  0  0  0  0  0  0  0  0
    3.7761   -3.1156    2.0489 C   0  0  0  0  0  0  0  0  0  0  0  0
    3.2547   -3.0374    3.1529 O   0  0  0  0  0  0  0  0  0  0  0  0
    4.0086   -2.0600    1.2279 O   0  0  0  0  0  0  0  0  0  0  0  0
    3.2877   -0.8415    1.5393 C   0  0  0  0  0  0  0  0  0  0  0  0
    4.2051    0.3673    1.0708 C   0  0  0  0  0  0  0  0  0  0  0  0
    4.0203    0.8977   -0.4155 C   0  0  0  0  0  0  0  0  0  0  0  0
    2.5188    0.9063   -0.8031 C   0  0  0  0  0  0  0  0  0  0  0  0
    1.7737    1.8364    0.2519 C   0  0  0  0  0  0  0  0  0  0  0  0
    2.1330    3.2073    0.1168 O   0  0  0  0  0  0  0  0  0  0  0  0
    2.2702   -0.6066   -0.5838 C   0  0  0  0  0  0  0  0  0  0  0  0
    1.7850   -1.4388   -1.5341 C   0  0  0  0  0  0  0  0  0  0  0  0
    2.4857   -1.6567   -2.6747 O   0  0  0  0  0  0  0  0  0  0  0  0
    0.4356   -1.5259   -1.4183 C   0  0  0  0  0  0  0  0  0  0  0  0
   -0.1518   -1.3618   -0.1495 C   0  0  0  0  0  0  0  0  0  0  0  0
    0.6933   -1.3175    0.9951 C   0  0  0  0  0  0  0  0  0  0  0  0
    0.2313   -1.6600    2.3867 C   0  0  0  0  0  0  0  0  0  0  0  0
   -1.0595   -1.0548    2.8554 C   0  0  0  0  0  0  0  0  0  0  0  0
   -1.2431    0.0584    3.5914 C   0  0  0  0  0  0  0  0  0  0  0  0
   -2.6289    0.4996    3.9822 C   0  0  0  0  0  0  0  0  0  0  0  0
   -0.1545    0.9828    4.0502 C   0  0  0  0  0  0  0  0  0  0  0  0
    2.0206   -0.9508    0.7211 C   0  0  0  0  0  0  0  0  0  0  0  0
   -1.5333   -1.1238   -0.0791 O   0  0  0  0  0  0  0  0  0  0  0  0
   -1.8652    0.1879   -0.3877 C   0  0  0  0  0  0  0  0  0  0  0  0
   -2.1319    1.0201    0.5631 N   0  0  0  0  0  0  0  0  0  0  0  0
   -1.9483    0.5769   -1.8790 C   0  0  0  0  0  0  0  0  0  0  0  0
   -3.0425   -0.2356   -2.6148 C   0  0  0  0  0  0  0  0  0  0  0  0
   -4.2897   -0.4529   -1.7997 C   0  0  0  0  0  0  0  0  0  0  0  0
   -5.4054    0.2989   -1.7652 C   0  0  0  0  0  0  0  0  0  0  0  0
   -6.5489   -0.0823   -0.8578 C   0  0  0  0  0  0  0  0  0  0  0  0
   -5.6173    1.5517   -2.5660 C   0  0  0  0  0  0  0  0  0  0  0  0
   -0.5341    0.4581   -2.4226 C   0  0  0  0  0  0  0  0  0  0  0  0
    0.4114    1.4425   -2.3325 C   0  0  0  0  0  0  0  0  0  0  0  0
    1.9917    1.3385   -2.2737 C   0  0  0  0  0  0  0  0  0  0  0  0
    2.6233    2.6398   -2.7929 C   0  0  0  0  0  0  0  0  0  0  0  0
   -0.1803   -0.9693   -2.6158 C   0  0  0  0  0  0  0  0  0  0  0  0
   -0.2527   -1.5641   -3.6772 O   0  0  0  0  0  0  0  0  0  0  0  0
    3.2300   -4.8968    1.0375 H   0  0  0  0  0  0  0  0  0  0  0  0
    4.8041   -4.2502    0.5281 H   0  0  0  0  0  0  0  0  0  0  0  0
    4.6579   -5.0583    2.1029 H   0  0  0  0  0  0  0  0  0  0  0  0
    3.1019   -0.7399    2.6137 H   0  0  0  0  0  0  0  0  0  0  0  0
    5.2593    0.1060    1.2269 H   0  0  0  0  0  0  0  0  0  0  0  0
    4.0093    1.2099    1.7493 H   0  0  0  0  0  0  0  0  0  0  0  0
    4.4648    1.8956   -0.4951 H   0  0  0  0  0  0  0  0  0  0  0  0
    4.5985    0.2517   -1.0912 H   0  0  0  0  0  0  0  0  0  0  0  0
    1.9480    1.5621    1.2962 H   0  0  0  0  0  0  0  0  0  0  0  0
    0.6899    1.7707    0.1412 H   0  0  0  0  0  0  0  0  0  0  0  0
    3.0154    3.3216    0.5131 H   0  0  0  0  0  0  0  0  0  0  0  0
    1.8822   -2.0328   -3.3505 H   0  0  0  0  0  0  0  0  0  0  0  0
    0.1248   -2.7543    2.4186 H   0  0  0  0  0  0  0  0  0  0  0  0
    1.0153   -1.4325    3.1156 H   0  0  0  0  0  0  0  0  0  0  0  0
   -1.9417   -1.6236    2.5633 H   0  0  0  0  0  0  0  0  0  0  0  0
   -2.8376    1.5034    3.5977 H   0  0  0  0  0  0  0  0  0  0  0  0
   -2.7234    0.5229    5.0719 H   0  0  0  0  0  0  0  0  0  0  0  0
   -3.4073   -0.1679    3.6001 H   0  0  0  0  0  0  0  0  0  0  0  0
   -0.1605    1.0630    5.1421 H   0  0  0  0  0  0  0  0  0  0  0  0
   -0.3149    1.9815    3.6321 H   0  0  0  0  0  0  0  0  0  0  0  0
    0.8435    0.6644    3.7429 H   0  0  0  0  0  0  0  0  0  0  0  0
   -2.3906    1.9346    0.1828 H   0  0  0  0  0  0  0  0  0  0  0  0
   -2.2462    1.6325   -1.9287 H   0  0  0  0  0  0  0  0  0  0  0  0
   -2.6929   -1.2382   -2.8887 H   0  0  0  0  0  0  0  0  0  0  0  0
   -3.2781    0.2465   -3.5719 H   0  0  0  0  0  0  0  0  0  0  0  0
   -4.2603   -1.3435   -1.1698 H   0  0  0  0  0  0  0  0  0  0  0  0
   -6.3402   -0.9932   -0.2858 H   0  0  0  0  0  0  0  0  0  0  0  0
   -7.4630   -0.2587   -1.4363 H   0  0  0  0  0  0  0  0  0  0  0  0
   -6.7383    0.7180   -0.1342 H   0  0  0  0  0  0  0  0  0  0  0  0
   -4.7107    1.8827   -3.0812 H   0  0  0  0  0  0  0  0  0  0  0  0
   -5.9271    2.3752   -1.9123 H   0  0  0  0  0  0  0  0  0  0  0  0
   -6.4007    1.3960   -3.3163 H   0  0  0  0  0  0  0  0  0  0  0  0
    0.0535    2.4384   -2.0547 H   0  0  0  0  0  0  0  0  0  0  0  0
    2.2934    0.5977   -3.0211 H   0  0  0  0  0  0  0  0  0  0  0  0
    3.7125    2.6084   -2.7064 H   0  0  0  0  0  0  0  0  0  0  0  0
    2.3899    2.7726   -3.8554 H   0  0  0  0  0  0  0  0  0  0  0  0
    2.2556    3.5312   -2.2743 H   0  0  0  0  0  0  0  0  0  0  0  0
  2  1  1  0  0  0  0
  3  2  2  0  0  0  0
  4  2  1  0  0  0  0
  5  4  1  0  0  0  0
  6  5  1  0  0  0  0
  7  6  1  0  0  0  0
  8  7  1  0  0  0  0
  9  8  1  0  0  0  0
 10  9  1  0  0  0  0
 11  8  1  0  0  0  0
 12 11  2  0  0  0  0
 13 12  1  0  0  0  0
 14 12  1  0  0  0  0
 15 14  2  0  0  0  0
 16 15  1  0  0  0  0
 17 16  1  0  0  0  0
 18 17  1  0  0  0  0
 19 18  2  0  0  0  0
 20 19  1  0  0  0  0
 21 19  1  0  0  0  0
 22 16  2  0  0  0  0
 22 11  1  0  0  0  0
 22  5  1  0  0  0  0
 23 15  1  0  0  0  0
 24 23  1  0  0  0  0
 25 24  2  0  0  0  0
 26 24  1  0  0  0  0
 27 26  1  0  0  0  0
 28 27  1  0  0  0  0
 29 28  2  0  0  0  0
 30 29  1  0  0  0  0
 31 29  1  0  0  0  0
 32 26  1  0  0  0  0
 33 32  2  0  0  0  0
 34 33  1  0  0  0  0
 34  8  1  0  0  0  0
 35 34  1  0  0  0  0
 36 32  1  0  0  0  0
 36 14  1  0  0  0  0
 37 36  2  0  0  0  0
  1 38  1  0  0  0  0
  1 39  1  0  0  0  0
  1 40  1  0  0  0  0
  5 41  1  0  0  0  0
  6 42  1  0  0  0  0
  6 43  1  0  0  0  0
  7 44  1  0  0  0  0
  7 45  1  0  0  0  0
  9 46  1  0  0  0  0
  9 47  1  0  0  0  0
 10 48  1  0  0  0  0
 13 49  1  0  0  0  0
 17 50  1  0  0  0  0
 17 51  1  0  0  0  0
 18 52  1  0  0  0  0
 20 53  1  0  0  0  0
 20 54  1  0  0  0  0
 20 55  1  0  0  0  0
 21 56  1  0  0  0  0
 21 57  1  0  0  0  0
 21 58  1  0  0  0  0
 25 59  1  0  0  0  0
 26 60  1  0  0  0  0
 27 61  1  0  0  0  0
 27 62  1  0  0  0  0
 28 63  1  0  0  0  0
 30 64  1  0  0  0  0
 30 65  1  0  0  0  0
 30 66  1  0  0  0  0
 31 67  1  0  0  0  0
 31 68  1  0  0  0  0
 31 69  1  0  0  0  0
 33 70  1  0  0  0  0
 34 71  1  0  0  0  0
 35 72  1  0  0  0  0
 35 73  1  0  0  0  0
 35 74  1  0  0  0  0
M  END
>  <energy>
266.99768413915604

$$$$
