CC(CO)C1C2C3C4C5C6C7C8C(C4C2C78C15)C36CN
                    3D

 43 50  0  0  0  0  0  0  0  0999 V2000
    3.3995   -1.5836    0.8341 C   0  0  0  0  0  0  0  0  0  0  0  0
    2.5772   -1.5893   -0.4583 C   0  0  0  0  0  0  0  0  0  0  0  0
    3.0319   -0.4340   -1.3597 C   0  0  0  0  0  0  0  0  0  0  0  0
    2.5039   -0.5820   -2.6700 O   0  0  0  0  0  0  0  0  0  0  0  0
    1.0613   -1.7666   -0.1834 C   0  0  0  0  0  0  0  0  0  0  0  0
    0.0878   -1.1899   -1.1801 C   0  0  0  0  0  0  0  0  0  0  0  0
    0.0020    0.6821   -1.1298 C   0  0  0  0  0  0  0  0  0  0  0  0
   -1.2960    0.3012   -1.1327 C   0  0  0  0  0  0  0  0  0  0  0  0
    0.0539    0.3301    0.3999 C   0  0  0  0  0  0  0  0  0  0  0  0
   -0.6147    1.0873    1.4695 C   0  0  0  0  0  0  0  0  0  0  0  0
   -1.2013   -0.0881    2.1791 C   0  0  0  0  0  0  0  0  0  0  0  0
   -2.3589   -0.5277    1.5355 C   0  0  0  0  0  0  0  0  0  0  0  0
   -2.6085    0.3779    0.3711 C   0  0  0  0  0  0  0  0  0  0  0  0
   -2.3002   -0.6214   -0.6724 C   0  0  0  0  0  0  0  0  0  0  0  0
   -1.3187   -1.6787   -0.3132 C   0  0  0  0  0  0  0  0  0  0  0  0
   -1.0449   -1.4055    1.2674 C   0  0  0  0  0  0  0  0  0  0  0  0
    0.4210   -1.0475    0.9914 C   0  0  0  0  0  0  0  0  0  0  0  0
   -1.2229    1.4509    0.1639 C   0  0  0  0  0  0  0  0  0  0  0  0
   -1.5324    2.9263   -0.0826 C   0  0  0  0  0  0  0  0  0  0  0  0
   -2.3017    3.5253    1.0002 N   0  0  0  0  0  0  0  0  0  0  0  0
    3.2662   -0.6491    1.3895 H   0  0  0  0  0  0  0  0  0  0  0  0
    4.4689   -1.6821    0.6128 H   0  0  0  0  0  0  0  0  0  0  0  0
    3.1209   -2.4197    1.4841 H   0  0  0  0  0  0  0  0  0  0  0  0
    2.8625   -2.5008   -1.0051 H   0  0  0  0  0  0  0  0  0  0  0  0
    2.7449    0.5418   -0.9637 H   0  0  0  0  0  0  0  0  0  0  0  0
    4.1241   -0.4419   -1.4510 H   0  0  0  0  0  0  0  0  0  0  0  0
    2.8767    0.1345   -3.2114 H   0  0  0  0  0  0  0  0  0  0  0  0
    0.8927   -2.8461   -0.0572 H   0  0  0  0  0  0  0  0  0  0  0  0
    0.0966   -1.5769   -2.2052 H   0  0  0  0  0  0  0  0  0  0  0  0
    0.2421    1.2812   -2.0181 H   0  0  0  0  0  0  0  0  0  0  0  0
   -1.2568    0.0859   -2.2229 H   0  0  0  0  0  0  0  0  0  0  0  0
    1.0627    0.8868    0.3461 H   0  0  0  0  0  0  0  0  0  0  0  0
    0.0422    1.7706    2.0083 H   0  0  0  0  0  0  0  0  0  0  0  0
   -1.0665   -0.1447    3.2457 H   0  0  0  0  0  0  0  0  0  0  0  0
   -3.2044   -0.9683    2.0329 H   0  0  0  0  0  0  0  0  0  0  0  0
   -3.5688    0.8961    0.3216 H   0  0  0  0  0  0  0  0  0  0  0  0
   -3.0837   -0.8532   -1.3946 H   0  0  0  0  0  0  0  0  0  0  0  0
   -1.6021   -2.7172   -0.5015 H   0  0  0  0  0  0  0  0  0  0  0  0
    1.0304   -1.0274    1.9009 H   0  0  0  0  0  0  0  0  0  0  0  0
   -0.5922    3.4772   -0.1914 H   0  0  0  0  0  0  0  0  0  0  0  0
   -2.0850    3.0359   -1.0223 H   0  0  0  0  0  0  0  0  0  0  0  0
   -3.1995    3.0531    1.0963 H   0  0  0  0  0  0  0  0  0  0  0  0
   -2.5103    4.4974    0.7761 H   0  0  0  0  0  0  0  0  0  0  0  0
  2  1  1  0  0  0  0
  3  2  1  0  0  0  0
  4  3  1  0  0  0  0
  5  2  1  0  0  0  0
  6  5  1  0  0  0  0
  7  6  1  0  0  0  0
  8  7  1  0  0  0  0
  9  8  1  0  0  0  0
 10  9  1  0  0  0  0
 11 10  1  0  0  0  0
 12 11  1  0  0  0  0
 13 12  1  0  0  0  0
 14 13  1  0  0  0  0
 14  8  1  0  0  0  0
 15 14  1  0  0  0  0
 15  6  1  0  0  0  0
 16 15  1  0  0  0  0
 16 11  1  0  0  0  0
 16 12  1  0  0  0  0
 17 16  1  0  0  0  0
 17  5  1  0  0  0  0
 17  9  1  0  0  0  0
 18 13  1  0  0  0  0
 18  7  1  0  0  0  0
 18 10  1  0  0  0  0
 19 18  1  0  0  0  0
 20 19  1  0  0  0  0
  1 21  1  0  0  0  0
  1 22  1  0  0  0  0
  1 23  1  0  0  0  0
  2 24  1  0  0  0  0
  3 25  1  0  0  0  0
  3 26  1  0  0  0  0
  4 27  1  0  0  0  0
  5 28  1  0  0  0  0
  6 29  1  0  0  0  0
  7 30  1  0  0  0  0
  8 31  1  0  0  0  0
  9 32  1  0  0  0  0
 10 33  1  0  0  0  0
 11 34  1  0  0  0  0
 12 35  1  0  0  0  0
 13 36  1  0  0  0  0
 14 37  1  0  0  0  0
 15 38  1  0  0  0  0
 17 39  1  0  0  0  0
 19 40  1  0  0  0  0
 19 41  1  0  0  0  0
 20 42  1  0  0  0  0
 20 43  1  0  0  0  0
M  END
>  <energy>
660.06686523139501

$$$$
