CCCC(=O)OC1CCC2(C)C3CC(O)C4(F)C(CCC3C(C)CC3OC5OC(C(C)C)CCC5(Cl)C34C)C2C1(C)CO
                    3D

 99104  0  0  0  0  0  0  0  0999 V2000
    2.0425   -4.5517   -0.9627 C   0  0  0  0  0  0  0  0  0  0  0  0
    2.4103   -4.7644   -2.4246 C   0  0  0  0  0  0  0  0  0  0  0  0
    2.6249   -3.4670   -3.2026 C   0  0  0  0  0  0  0  0  0  0  0  0
    3.9518   -2.7834   -2.9416 C   0  0  0  0  0  0  0  0  0  0  0  0
    4.9990   -3.3579   -2.6825 O   0  0  0  0  0  0  0  0  0  0  0  0
    3.8965   -1.4327   -3.1540 O   0  0  0  0  0  0  0  0  0  0  0  0
    3.4267   -0.6866   -2.0149 C   0  0  0  0  0  0  0  0  0  0  0  0
    4.6283   -0.1637   -1.2386 C   0  0  0  0  0  0  0  0  0  0  0  0
    4.2599    0.6275    0.0128 C   0  0  0  0  0  0  0  0  0  0  0  0
    2.9500    1.4948    0.0094 C   0  0  0  0  0  0  0  0  0  0  0  0
    3.4739    2.9566   -0.2489 C   0  0  0  0  0  0  0  0  0  0  0  0
    2.3072    1.4883    1.4832 C   0  0  0  0  0  0  0  0  0  0  0  0
    1.2523    2.5915    1.6872 C   0  0  0  0  0  0  0  0  0  0  0  0
    0.0024    2.6185    0.8176 C   0  0  0  0  0  0  0  0  0  0  0  0
    0.2272    3.6051   -0.2194 O   0  0  0  0  0  0  0  0  0  0  0  0
   -0.5562    1.3277    0.1543 C   0  0  0  0  0  0  0  0  0  0  0  0
   -1.2342    1.8863   -0.9656 F   0  0  0  0  0  0  0  0  0  0  0  0
    0.5710    0.4320   -0.5425 C   0  0  0  0  0  0  0  0  0  0  0  0
    0.8338   -0.9377    0.0846 C   0  0  0  0  0  0  0  0  0  0  0  0
    1.8119   -1.0989    1.2127 C   0  0  0  0  0  0  0  0  0  0  0  0
    1.9657    0.0932    2.1474 C   0  0  0  0  0  0  0  0  0  0  0  0
    0.9568    0.0053    3.3481 C   0  0  0  0  0  0  0  0  0  0  0  0
    1.5964    0.6706    4.5924 C   0  0  0  0  0  0  0  0  0  0  0  0
   -0.5243    0.4592    3.2344 C   0  0  0  0  0  0  0  0  0  0  0  0
   -1.4811   -0.1899    2.2209 C   0  0  0  0  0  0  0  0  0  0  0  0
   -2.7831   -0.2765    2.9078 O   0  0  0  0  0  0  0  0  0  0  0  0
   -3.7899    0.1531    1.9837 C   0  0  0  0  0  0  0  0  0  0  0  0
   -5.0694    0.4846    2.4980 O   0  0  0  0  0  0  0  0  0  0  0  0
   -6.0057    0.8128    1.4469 C   0  0  0  0  0  0  0  0  0  0  0  0
   -6.6320   -0.4278    0.7090 C   0  0  0  0  0  0  0  0  0  0  0  0
   -6.2715   -1.8229    1.2422 C   0  0  0  0  0  0  0  0  0  0  0  0
   -6.5282   -0.4374   -0.8185 C   0  0  0  0  0  0  0  0  0  0  0  0
   -5.4666    1.9701    0.5699 C   0  0  0  0  0  0  0  0  0  0  0  0
   -4.0315    1.7515    0.0485 C   0  0  0  0  0  0  0  0  0  0  0  0
   -3.1103    1.2728    1.1767 C   0  0  0  0  0  0  0  0  0  0  0  0
   -2.9233    2.6958    2.3176 Cl  0  0  0  0  0  0  0  0  0  0  0  0
   -1.7620    0.5125    0.8322 C   0  0  0  0  0  0  0  0  0  0  0  0
   -2.2194   -0.5913   -0.2546 C   0  0  0  0  0  0  0  0  0  0  0  0
    1.8704    1.1478   -1.1125 C   0  0  0  0  0  0  0  0  0  0  0  0
    2.4844    0.4641   -2.4414 C   0  0  0  0  0  0  0  0  0  0  0  0
    1.3628   -0.0543   -3.3852 C   0  0  0  0  0  0  0  0  0  0  0  0
    3.2571    1.5096   -3.3213 C   0  0  0  0  0  0  0  0  0  0  0  0
    3.7161    0.9624   -4.5561 O   0  0  0  0  0  0  0  0  0  0  0  0
    2.8330   -4.0400   -0.4094 H   0  0  0  0  0  0  0  0  0  0  0  0
    1.8590   -5.5170   -0.4803 H   0  0  0  0  0  0  0  0  0  0  0  0
    1.1161   -3.9691   -0.8713 H   0  0  0  0  0  0  0  0  0  0  0  0
    3.2873   -5.4119   -2.4924 H   0  0  0  0  0  0  0  0  0  0  0  0
    1.5800   -5.3055   -2.8981 H   0  0  0  0  0  0  0  0  0  0  0  0
    1.7998   -2.7924   -2.9805 H   0  0  0  0  0  0  0  0  0  0  0  0
    2.6017   -3.6791   -4.2770 H   0  0  0  0  0  0  0  0  0  0  0  0
    2.9022   -1.3807   -1.3639 H   0  0  0  0  0  0  0  0  0  0  0  0
    5.2530   -1.0134   -0.9377 H   0  0  0  0  0  0  0  0  0  0  0  0
    5.2871    0.4202   -1.8920 H   0  0  0  0  0  0  0  0  0  0  0  0
    5.1256    1.2568    0.2668 H   0  0  0  0  0  0  0  0  0  0  0  0
    4.2561   -0.0772    0.8462 H   0  0  0  0  0  0  0  0  0  0  0  0
    4.0424    3.3403    0.6072 H   0  0  0  0  0  0  0  0  0  0  0  0
    2.6770    3.6754   -0.4452 H   0  0  0  0  0  0  0  0  0  0  0  0
    4.1502    3.0135   -1.1037 H   0  0  0  0  0  0  0  0  0  0  0  0
    3.1366    1.8302    2.1303 H   0  0  0  0  0  0  0  0  0  0  0  0
    0.9564    2.6141    2.7346 H   0  0  0  0  0  0  0  0  0  0  0  0
    1.7594    3.5624    1.5910 H   0  0  0  0  0  0  0  0  0  0  0  0
   -0.7614    3.1046    1.4054 H   0  0  0  0  0  0  0  0  0  0  0  0
   -0.5577    3.5604   -0.7852 H   0  0  0  0  0  0  0  0  0  0  0  0
    0.0298    0.1805   -1.4527 H   0  0  0  0  0  0  0  0  0  0  0  0
   -0.0682   -1.3808    0.4618 H   0  0  0  0  0  0  0  0  0  0  0  0
    1.0786   -1.6566   -0.7020 H   0  0  0  0  0  0  0  0  0  0  0  0
    1.5045   -1.9843    1.7915 H   0  0  0  0  0  0  0  0  0  0  0  0
    2.7785   -1.4180    0.8189 H   0  0  0  0  0  0  0  0  0  0  0  0
    2.9227   -0.1760    2.6383 H   0  0  0  0  0  0  0  0  0  0  0  0
    0.9022   -1.0629    3.6254 H   0  0  0  0  0  0  0  0  0  0  0  0
    0.9880    0.5052    5.4875 H   0  0  0  0  0  0  0  0  0  0  0  0
    1.7244    1.7457    4.4674 H   0  0  0  0  0  0  0  0  0  0  0  0
    2.5863    0.2504    4.8002 H   0  0  0  0  0  0  0  0  0  0  0  0
   -0.9526    0.2314    4.2173 H   0  0  0  0  0  0  0  0  0  0  0  0
   -0.6037    1.5395    3.2107 H   0  0  0  0  0  0  0  0  0  0  0  0
   -1.1886   -1.2334    2.0909 H   0  0  0  0  0  0  0  0  0  0  0  0
   -3.9818   -0.7417    1.4146 H   0  0  0  0  0  0  0  0  0  0  0  0
   -6.8565    1.2414    1.9948 H   0  0  0  0  0  0  0  0  0  0  0  0
   -7.7108   -0.3378    0.8997 H   0  0  0  0  0  0  0  0  0  0  0  0
   -5.2826   -2.1627    0.9288 H   0  0  0  0  0  0  0  0  0  0  0  0
   -6.3348   -1.8635    2.3333 H   0  0  0  0  0  0  0  0  0  0  0  0
   -6.9711   -2.5610    0.8369 H   0  0  0  0  0  0  0  0  0  0  0  0
   -5.5058   -0.6190   -1.1681 H   0  0  0  0  0  0  0  0  0  0  0  0
   -7.1520   -1.2433   -1.2323 H   0  0  0  0  0  0  0  0  0  0  0  0
   -6.8937    0.4959   -1.2580 H   0  0  0  0  0  0  0  0  0  0  0  0
   -6.1477    2.2051   -0.2583 H   0  0  0  0  0  0  0  0  0  0  0  0
   -5.4499    2.8728    1.2007 H   0  0  0  0  0  0  0  0  0  0  0  0
   -3.6398    2.6788   -0.3864 H   0  0  0  0  0  0  0  0  0  0  0  0
   -4.0623    1.0642   -0.7988 H   0  0  0  0  0  0  0  0  0  0  0  0
   -1.8012   -1.5842   -0.0999 H   0  0  0  0  0  0  0  0  0  0  0  0
   -1.9956   -0.2831   -1.2808 H   0  0  0  0  0  0  0  0  0  0  0  0
   -3.2893   -0.7871   -0.2925 H   0  0  0  0  0  0  0  0  0  0  0  0
    1.4928    2.1021   -1.4985 H   0  0  0  0  0  0  0  0  0  0  0  0
    0.7923   -0.8809   -2.9608 H   0  0  0  0  0  0  0  0  0  0  0  0
    1.7536   -0.4238   -4.3370 H   0  0  0  0  0  0  0  0  0  0  0  0
    0.6635    0.7548   -3.6238 H   0  0  0  0  0  0  0  0  0  0  0  0
    2.5949    2.3485   -3.5739 H   0  0  0  0  0  0  0  0  0  0  0  0
    4.1296    1.9348   -2.8243 H   0  0  0  0  0  0  0  0  0  0  0  0
    4.1515    0.1075   -4.3656 H   0  0  0  0  0  0  0  0  0  0  0  0
  2  1  1  0  0  0  0
  3  2  1  0  0  0  0
  4  3  1  0  0  0  0
  5  4  2  0  0  0  0
  6  4  1  0  0  0  0
  7  6  1  0  0  0  0
  8  7  1  0  0  0  0
  9  8  1  0  0  0  0
 10  9  1  0  0  0  0
 11 10  1  0  0  0  0
 12 10  1  0  0  0  0
 13 12  1  0  0  0  0
 14 13  1  0  0  0  0
 15 14  1  0  0  0  0
 16 14  1  0  0  0  0
 17 16  1  0  0  0  0
 18 16  1  0  0  0  0
 19 18  1  0  0  0  0
 20 19  1  0  0  0  0
 21 20  1  0  0  0  0
 21 12  1  0  0  0  0
 22 21  1  0  0  0  0
 23 22  1  0  0  0  0
 24 22  1  0  0  0  0
 25 24  1  0  0  0  0
 26 25  1  0  0  0  0
 27 26  1  0  0  0  0
 28 27  1  0  0  0  0
 29 28  1  0  0  0  0
 30 29  1  0  0  0  0
 31 30  1  0  0  0  0
 32 30  1  0  0  0  0
 33 29  1  0  0  0  0
 34 33  1  0  0  0  0
 35 34  1  0  0  0  0
 35 27  1  0  0  0  0
 36 35  1  0  0  0  0
 37 35  1  0  0  0  0
 37 25  1  0  0  0  0
 37 16  1  0  0  0  0
 38 37  1  0  0  0  0
 39 18  1  0  0  0  0
 39 10  1  0  0  0  0
 40 39  1  0  0  0  0
 40  7  1  0  0  0  0
 41 40  1  0  0  0  0
 42 40  1  0  0  0  0
 43 42  1  0  0  0  0
  1 44  1  0  0  0  0
  1 45  1  0  0  0  0
  1 46  1  0  0  0  0
  2 47  1  0  0  0  0
  2 48  1  0  0  0  0
  3 49  1  0  0  0  0
  3 50  1  0  0  0  0
  7 51  1  0  0  0  0
  8 52  1  0  0  0  0
  8 53  1  0  0  0  0
  9 54  1  0  0  0  0
  9 55  1  0  0  0  0
 11 56  1  0  0  0  0
 11 57  1  0  0  0  0
 11 58  1  0  0  0  0
 12 59  1  0  0  0  0
 13 60  1  0  0  0  0
 13 61  1  0  0  0  0
 14 62  1  0  0  0  0
 15 63  1  0  0  0  0
 18 64  1  0  0  0  0
 19 65  1  0  0  0  0
 19 66  1  0  0  0  0
 20 67  1  0  0  0  0
 20 68  1  0  0  0  0
 21 69  1  0  0  0  0
 22 70  1  0  0  0  0
 23 71  1  0  0  0  0
 23 72  1  0  0  0  0
 23 73  1  0  0  0  0
 24 74  1  0  0  0  0
 24 75  1  0  0  0  0
 25 76  1  0  0  0  0
 27 77  1  0  0  0  0
 29 78  1  0  0  0  0
 30 79  1  0  0  0  0
 31 80  1  0  0  0  0
 31 81  1  0  0  0  0
 31 82  1  0  0  0  0
 32 83  1  0  0  0  0
 32 84  1  0  0  0  0
 32 85  1  0  0  0  0
 33 86  1  0  0  0  0
 33 87  1  0  0  0  0
 34 88  1  0  0  0  0
 34 89  1  0  0  0  0
 38 90  1  0  0  0  0
 38 91  1  0  0  0  0
 38 92  1  0  0  0  0
 39 93  1  0  0  0  0
 41 94  1  0  0  0  0
 41 95  1  0  0  0  0
 41 96  1  0  0  0  0
 42 97  1  0  0  0  0
 42 98  1  0  0  0  0
 43 99  1  0  0  0  0
M  END
>  <energy>
286.30968611839853

$$$$
