C=CC1(C)CC(=O)C2C3CC4OC(COC(C)=O)(CC3(C)CCC=O)C4C(O)CC2(C)C(C)(C=C)C1O
                    3D

 81 84  0  0  0  0  0  0  0  0999 V2000
    3.9207   -1.5918   -2.2724 C   0  0  0  0  0  0  0  0  0  0  0  0
    3.5731   -1.6151   -0.9791 C   0  0  0  0  0  0  0  0  0  0  0  0
    3.9865   -0.5988    0.0855 C   0  0  0  0  0  0  0  0  0  0  0  0
    5.5562   -0.6491    0.1157 C   0  0  0  0  0  0  0  0  0  0  0  0
    3.5663   -1.0656    1.4871 C   0  0  0  0  0  0  0  0  0  0  0  0
    2.1153   -1.1056    1.8993 C   0  0  0  0  0  0  0  0  0  0  0  0
    1.8799   -1.5563    3.0251 O   0  0  0  0  0  0  0  0  0  0  0  0
    0.9740   -0.6242    0.9604 C   0  0  0  0  0  0  0  0  0  0  0  0
   -0.3610   -1.3907    1.3796 C   0  0  0  0  0  0  0  0  0  0  0  0
   -0.8963   -0.9946    2.7745 C   0  0  0  0  0  0  0  0  0  0  0  0
   -2.1325   -0.1413    2.8407 C   0  0  0  0  0  0  0  0  0  0  0  0
   -3.2801   -0.9025    2.3582 O   0  0  0  0  0  0  0  0  0  0  0  0
   -3.2759   -0.1031    1.1416 C   0  0  0  0  0  0  0  0  0  0  0  0
   -4.7230    0.3279    0.8343 C   0  0  0  0  0  0  0  0  0  0  0  0
   -4.6846    1.3680   -0.1532 O   0  0  0  0  0  0  0  0  0  0  0  0
   -5.0560    1.0349   -1.4159 C   0  0  0  0  0  0  0  0  0  0  0  0
   -4.5636    2.0867   -2.3663 C   0  0  0  0  0  0  0  0  0  0  0  0
   -5.6403    0.0119   -1.7383 O   0  0  0  0  0  0  0  0  0  0  0  0
   -2.6415   -0.8759   -0.0076 C   0  0  0  0  0  0  0  0  0  0  0  0
   -1.4517   -1.8402    0.2788 C   0  0  0  0  0  0  0  0  0  0  0  0
   -2.0260   -3.2129    0.7588 C   0  0  0  0  0  0  0  0  0  0  0  0
   -0.7732   -2.1436   -1.1144 C   0  0  0  0  0  0  0  0  0  0  0  0
   -1.6975   -2.6109   -2.2537 C   0  0  0  0  0  0  0  0  0  0  0  0
   -1.2868   -1.9732   -3.5559 C   0  0  0  0  0  0  0  0  0  0  0  0
   -1.9278   -1.0748   -4.0889 O   0  0  0  0  0  0  0  0  0  0  0  0
   -2.4603    1.0008    1.8681 C   0  0  0  0  0  0  0  0  0  0  0  0
   -1.4806    1.9943    1.2654 C   0  0  0  0  0  0  0  0  0  0  0  0
   -2.2594    2.9276    0.4886 O   0  0  0  0  0  0  0  0  0  0  0  0
   -0.3987    1.4960    0.3011 C   0  0  0  0  0  0  0  0  0  0  0  0
    0.9967    0.9471    0.7844 C   0  0  0  0  0  0  0  0  0  0  0  0
    1.3464    1.6285    2.1359 C   0  0  0  0  0  0  0  0  0  0  0  0
    2.0940    1.3555   -0.3907 C   0  0  0  0  0  0  0  0  0  0  0  0
    1.6333    0.8135   -1.7798 C   0  0  0  0  0  0  0  0  0  0  0  0
    2.1716    2.9155   -0.5021 C   0  0  0  0  0  0  0  0  0  0  0  0
    2.0357    3.6933   -1.5856 C   0  0  0  0  0  0  0  0  0  0  0  0
    3.5921    0.8977   -0.1712 C   0  0  0  0  0  0  0  0  0  0  0  0
    4.1848    1.6755    0.8899 O   0  0  0  0  0  0  0  0  0  0  0  0
    3.6204   -2.3922   -2.9442 H   0  0  0  0  0  0  0  0  0  0  0  0
    4.5150   -0.7865   -2.7014 H   0  0  0  0  0  0  0  0  0  0  0  0
    2.9983   -2.4799   -0.6432 H   0  0  0  0  0  0  0  0  0  0  0  0
    5.9935   -0.2065   -0.7862 H   0  0  0  0  0  0  0  0  0  0  0  0
    5.9228   -1.6804    0.1896 H   0  0  0  0  0  0  0  0  0  0  0  0
    5.9667   -0.1032    0.9739 H   0  0  0  0  0  0  0  0  0  0  0  0
    4.0652   -0.4504    2.2477 H   0  0  0  0  0  0  0  0  0  0  0  0
    3.9385   -2.0911    1.6399 H   0  0  0  0  0  0  0  0  0  0  0  0
    1.2409   -1.0807    0.0127 H   0  0  0  0  0  0  0  0  0  0  0  0
    0.0842   -2.3803    1.6036 H   0  0  0  0  0  0  0  0  0  0  0  0
   -1.1168   -1.9247    3.3145 H   0  0  0  0  0  0  0  0  0  0  0  0
   -0.1260   -0.5123    3.3792 H   0  0  0  0  0  0  0  0  0  0  0  0
   -2.3113    0.1633    3.8817 H   0  0  0  0  0  0  0  0  0  0  0  0
   -5.3482   -0.5271    0.5555 H   0  0  0  0  0  0  0  0  0  0  0  0
   -5.1939    0.7524    1.7287 H   0  0  0  0  0  0  0  0  0  0  0  0
   -5.0237    1.9743   -3.3500 H   0  0  0  0  0  0  0  0  0  0  0  0
   -4.8129    3.0767   -1.9819 H   0  0  0  0  0  0  0  0  0  0  0  0
   -3.4816    1.9865   -2.4715 H   0  0  0  0  0  0  0  0  0  0  0  0
   -2.3812   -0.1706   -0.8000 H   0  0  0  0  0  0  0  0  0  0  0  0
   -3.4487   -1.4703   -0.4475 H   0  0  0  0  0  0  0  0  0  0  0  0
   -1.2276   -3.9658    0.8188 H   0  0  0  0  0  0  0  0  0  0  0  0
   -2.4846   -3.1554    1.7487 H   0  0  0  0  0  0  0  0  0  0  0  0
   -2.7777   -3.6035    0.0682 H   0  0  0  0  0  0  0  0  0  0  0  0
   -0.2729   -1.2354   -1.4513 H   0  0  0  0  0  0  0  0  0  0  0  0
    0.0082   -2.9081   -0.9774 H   0  0  0  0  0  0  0  0  0  0  0  0
   -1.6664   -3.6996   -2.3697 H   0  0  0  0  0  0  0  0  0  0  0  0
   -2.7444   -2.3381   -2.1067 H   0  0  0  0  0  0  0  0  0  0  0  0
   -0.3444   -2.3341   -3.9981 H   0  0  0  0  0  0  0  0  0  0  0  0
   -3.1663    1.6705    2.4050 H   0  0  0  0  0  0  0  0  0  0  0  0
   -1.0315    2.5945    2.0618 H   0  0  0  0  0  0  0  0  0  0  0  0
   -2.8893    3.3806    1.0805 H   0  0  0  0  0  0  0  0  0  0  0  0
   -0.2040    2.3710   -0.3324 H   0  0  0  0  0  0  0  0  0  0  0  0
   -0.8074    0.8003   -0.4219 H   0  0  0  0  0  0  0  0  0  0  0  0
    0.6661    1.3326    2.9361 H   0  0  0  0  0  0  0  0  0  0  0  0
    2.3506    1.3844    2.4847 H   0  0  0  0  0  0  0  0  0  0  0  0
    1.2819    2.7179    2.0839 H   0  0  0  0  0  0  0  0  0  0  0  0
    0.6720    1.2277   -2.1018 H   0  0  0  0  0  0  0  0  0  0  0  0
    1.5224   -0.2655   -1.8041 H   0  0  0  0  0  0  0  0  0  0  0  0
    2.3588    1.0593   -2.5650 H   0  0  0  0  0  0  0  0  0  0  0  0
    2.3733    3.4433    0.4329 H   0  0  0  0  0  0  0  0  0  0  0  0
    1.8459    3.3002   -2.5786 H   0  0  0  0  0  0  0  0  0  0  0  0
    2.0962    4.7726   -1.4949 H   0  0  0  0  0  0  0  0  0  0  0  0
    4.1352    1.1976   -1.0823 H   0  0  0  0  0  0  0  0  0  0  0  0
    4.5952    2.4516    0.4646 H   0  0  0  0  0  0  0  0  0  0  0  0
  2  1  2  0  0  0  0
  3  2  1  0  0  0  0
  4  3  1  0  0  0  0
  5  3  1  0  0  0  0
  6  5  1  0  0  0  0
  7  6  2  0  0  0  0
  8  6  1  0  0  0  0
  9  8  1  0  0  0  0
 10  9  1  0  0  0  0
 11 10  1  0  0  0  0
 12 11  1  0  0  0  0
 13 12  1  0  0  0  0
 14 13  1  0  0  0  0
 15 14  1  0  0  0  0
 16 15  1  0  0  0  0
 17 16  1  0  0  0  0
 18 16  2  0  0  0  0
 19 13  1  0  0  0  0
 20 19  1  0  0  0  0
 20  9  1  0  0  0  0
 21 20  1  0  0  0  0
 22 20  1  0  0  0  0
 23 22  1  0  0  0  0
 24 23  1  0  0  0  0
 25 24  2  0  0  0  0
 26 13  1  0  0  0  0
 26 11  1  0  0  0  0
 27 26  1  0  0  0  0
 28 27  1  0  0  0  0
 29 27  1  0  0  0  0
 30 29  1  0  0  0  0
 30  8  1  0  0  0  0
 31 30  1  0  0  0  0
 32 30  1  0  0  0  0
 33 32  1  0  0  0  0
 34 32  1  0  0  0  0
 35 34  2  0  0  0  0
 36 32  1  0  0  0  0
 36  3  1  0  0  0  0
 37 36  1  0  0  0  0
  1 38  1  0  0  0  0
  1 39  1  0  0  0  0
  2 40  1  0  0  0  0
  4 41  1  0  0  0  0
  4 42  1  0  0  0  0
  4 43  1  0  0  0  0
  5 44  1  0  0  0  0
  5 45  1  0  0  0  0
  8 46  1  0  0  0  0
  9 47  1  0  0  0  0
 10 48  1  0  0  0  0
 10 49  1  0  0  0  0
 11 50  1  0  0  0  0
 14 51  1  0  0  0  0
 14 52  1  0  0  0  0
 17 53  1  0  0  0  0
 17 54  1  0  0  0  0
 17 55  1  0  0  0  0
 19 56  1  0  0  0  0
 19 57  1  0  0  0  0
 21 58  1  0  0  0  0
 21 59  1  0  0  0  0
 21 60  1  0  0  0  0
 22 61  1  0  0  0  0
 22 62  1  0  0  0  0
 23 63  1  0  0  0  0
 23 64  1  0  0  0  0
 24 65  1  0  0  0  0
 26 66  1  0  0  0  0
 27 67  1  0  0  0  0
 28 68  1  0  0  0  0
 29 69  1  0  0  0  0
 29 70  1  0  0  0  0
 31 71  1  0  0  0  0
 31 72  1  0  0  0  0
 31 73  1  0  0  0  0
 33 74  1  0  0  0  0
 33 75  1  0  0  0  0
 33 76  1  0  0  0  0
 34 77  1  0  0  0  0
 35 78  1  0  0  0  0
 35 79  1  0  0  0  0
 36 80  1  0  0  0  0
 37 81  1  0  0  0  0
M  END
>  <energy>
214.4320260433434

$$$$
