Cc1cc(=NCCSC(C)(C)C)[nH]c2c1ccc1c2[nH]c(=O)c2[nH]c3ccc2c31
                    3D

 53 57  0  0  0  0  0  0  0  0999 V2000
    0.8181   -5.0604    2.0523 C   0  0  0  0  0  0  0  0  0  0  0  0
    0.3496   -3.7815    1.4120 C   0  0  0  0  0  0  0  0  0  0  0  0
   -0.9662   -3.5517    1.2437 C   0  0  0  0  0  0  0  0  0  0  0  0
   -1.4035   -2.4163    0.3714 C   0  0  0  0  0  0  0  0  0  0  0  0
   -2.5655   -2.5752   -0.1784 N   0  0  0  0  0  0  0  0  0  0  0  0
   -3.0171   -1.6970   -1.2717 C   0  0  0  0  0  0  0  0  0  0  0  0
   -3.5816   -0.3578   -0.7574 C   0  0  0  0  0  0  0  0  0  0  0  0
   -2.8934    1.0524   -1.7218 S   0  0  0  0  0  0  0  0  0  0  0  0
   -3.4122    2.5376   -0.7241 C   0  0  0  0  0  0  0  0  0  0  0  0
   -2.9811    3.8115   -1.4744 C   0  0  0  0  0  0  0  0  0  0  0  0
   -4.9332    2.5559   -0.5416 C   0  0  0  0  0  0  0  0  0  0  0  0
   -2.6780    2.5382    0.6217 C   0  0  0  0  0  0  0  0  0  0  0  0
   -0.5287   -1.3738    0.1691 N   0  0  0  0  0  0  0  0  0  0  0  0
    0.8674   -1.5527    0.3971 C   0  0  0  0  0  0  0  0  0  0  0  0
    1.3394   -2.7725    0.9376 C   0  0  0  0  0  0  0  0  0  0  0  0
    2.7215   -2.9834    0.9990 C   0  0  0  0  0  0  0  0  0  0  0  0
    3.6237   -2.0072    0.5451 C   0  0  0  0  0  0  0  0  0  0  0  0
    3.1603   -0.7607    0.0978 C   0  0  0  0  0  0  0  0  0  0  0  0
    1.7679   -0.4950    0.1325 C   0  0  0  0  0  0  0  0  0  0  0  0
    1.1814    0.8008    0.0441 N   0  0  0  0  0  0  0  0  0  0  0  0
    1.7985    2.0334    0.0405 C   0  0  0  0  0  0  0  0  0  0  0  0
    1.1663    3.0500    0.2761 O   0  0  0  0  0  0  0  0  0  0  0  0
    3.2089    1.9995   -0.1974 C   0  0  0  0  0  0  0  0  0  0  0  0
    4.1639    1.7903    0.8550 N   0  0  0  0  0  0  0  0  0  0  0  0
    5.1175    0.9450    0.1971 C   0  0  0  0  0  0  0  0  0  0  0  0
    5.9981    1.7068   -0.6614 C   0  0  0  0  0  0  0  0  0  0  0  0
    5.1657    1.9672   -1.6738 C   0  0  0  0  0  0  0  0  0  0  0  0
    3.8928    1.3748   -1.2673 C   0  0  0  0  0  0  0  0  0  0  0  0
    4.1449    0.1687   -0.5081 C   0  0  0  0  0  0  0  0  0  0  0  0
    1.3708   -4.8932    2.9866 H   0  0  0  0  0  0  0  0  0  0  0  0
   -0.0311   -5.7157    2.2717 H   0  0  0  0  0  0  0  0  0  0  0  0
    1.4487   -5.6223    1.3534 H   0  0  0  0  0  0  0  0  0  0  0  0
   -1.7331   -4.2351    1.5808 H   0  0  0  0  0  0  0  0  0  0  0  0
   -3.7993   -2.2437   -1.8299 H   0  0  0  0  0  0  0  0  0  0  0  0
   -2.2103   -1.5938   -2.0175 H   0  0  0  0  0  0  0  0  0  0  0  0
   -4.6756   -0.3468   -0.8337 H   0  0  0  0  0  0  0  0  0  0  0  0
   -3.3217   -0.2212    0.2883 H   0  0  0  0  0  0  0  0  0  0  0  0
   -3.5825    3.9875   -2.3714 H   0  0  0  0  0  0  0  0  0  0  0  0
   -1.9257    3.7798   -1.7712 H   0  0  0  0  0  0  0  0  0  0  0  0
   -3.0998    4.6974   -0.8378 H   0  0  0  0  0  0  0  0  0  0  0  0
   -5.2811    3.5262   -0.1760 H   0  0  0  0  0  0  0  0  0  0  0  0
   -5.2808    1.8123    0.1837 H   0  0  0  0  0  0  0  0  0  0  0  0
   -5.4621    2.3679   -1.4839 H   0  0  0  0  0  0  0  0  0  0  0  0
   -1.5930    2.4883    0.4791 H   0  0  0  0  0  0  0  0  0  0  0  0
   -2.8656    3.4609    1.1824 H   0  0  0  0  0  0  0  0  0  0  0  0
   -2.9740    1.7035    1.2639 H   0  0  0  0  0  0  0  0  0  0  0  0
   -0.7290   -0.7677   -0.6160 H   0  0  0  0  0  0  0  0  0  0  0  0
    3.1168   -3.9331    1.3543 H   0  0  0  0  0  0  0  0  0  0  0  0
    4.6891   -2.2372    0.5674 H   0  0  0  0  0  0  0  0  0  0  0  0
    0.2012    0.8709    0.2904 H   0  0  0  0  0  0  0  0  0  0  0  0
    3.8624    1.6248    1.8064 H   0  0  0  0  0  0  0  0  0  0  0  0
    7.0274    1.9977   -0.5110 H   0  0  0  0  0  0  0  0  0  0  0  0
    5.3228    2.5458   -2.5747 H   0  0  0  0  0  0  0  0  0  0  0  0
  2  1  1  0  0  0  0
  3  2  2  0  0  0  0
  4  3  1  0  0  0  0
  5  4  2  0  0  0  0
  6  5  1  0  0  0  0
  7  6  1  0  0  0  0
  8  7  1  0  0  0  0
  9  8  1  0  0  0  0
 10  9  1  0  0  0  0
 11  9  1  0  0  0  0
 12  9  1  0  0  0  0
 13  4  1  0  0  0  0
 14 13  1  0  0  0  0
 15 14  2  0  0  0  0
 15  2  1  0  0  0  0
 16 15  1  0  0  0  0
 17 16  2  0  0  0  0
 18 17  1  0  0  0  0
 19 18  2  0  0  0  0
 19 14  1  0  0  0  0
 20 19  1  0  0  0  0
 21 20  1  0  0  0  0
 22 21  2  0  0  0  0
 23 21  1  0  0  0  0
 24 23  1  0  0  0  0
 25 24  1  0  0  0  0
 26 25  1  0  0  0  0
 27 26  2  0  0  0  0
 28 27  1  0  0  0  0
 28 23  2  0  0  0  0
 29 28  1  0  0  0  0
 29 25  2  0  0  0  0
 29 18  1  0  0  0  0
  1 30  1  0  0  0  0
  1 31  1  0  0  0  0
  1 32  1  0  0  0  0
  3 33  1  0  0  0  0
  6 34  1  0  0  0  0
  6 35  1  0  0  0  0
  7 36  1  0  0  0  0
  7 37  1  0  0  0  0
 10 38  1  0  0  0  0
 10 39  1  0  0  0  0
 10 40  1  0  0  0  0
 11 41  1  0  0  0  0
 11 42  1  0  0  0  0
 11 43  1  0  0  0  0
 12 44  1  0  0  0  0
 12 45  1  0  0  0  0
 12 46  1  0  0  0  0
 13 47  1  0  0  0  0
 16 48  1  0  0  0  0
 17 49  1  0  0  0  0
 20 50  1  0  0  0  0
 24 51  1  0  0  0  0
 26 52  1  0  0  0  0
 27 53  1  0  0  0  0
M  END
>  <energy>
205.81384070796605

$$$$
