CCCC(=O)OC1C(O)(CC)C(=O)OC(CC)C2(C)C3(C)CC4OC42C(=O)C2(C)C(CC=C(C)C)C1(C3C#CCOC)
                    3D

 97101  0  0  0  0  0  0  0  0999 V2000
   -6.0720   -1.5265   -2.2406 C   0  0  0  0  0  0  0  0  0  0  0  0
   -4.8808   -0.6347   -2.5364 C   0  0  0  0  0  0  0  0  0  0  0  0
   -4.1541   -0.1831   -1.2654 C   0  0  0  0  0  0  0  0  0  0  0  0
   -2.8348    0.4330   -1.6584 C   0  0  0  0  0  0  0  0  0  0  0  0
   -2.7035    1.1858   -2.6194 O   0  0  0  0  0  0  0  0  0  0  0  0
   -1.8128   -0.0154   -0.8702 O   0  0  0  0  0  0  0  0  0  0  0  0
   -0.4939    0.0396   -1.4708 C   0  0  0  0  0  0  0  0  0  0  0  0
   -0.1434   -1.3698   -2.1864 C   0  0  0  0  0  0  0  0  0  0  0  0
    0.0609   -1.0281   -3.5887 O   0  0  0  0  0  0  0  0  0  0  0  0
   -1.2994   -2.4134   -2.1408 C   0  0  0  0  0  0  0  0  0  0  0  0
   -1.6143   -3.0163   -0.7680 C   0  0  0  0  0  0  0  0  0  0  0  0
    1.1621   -2.1517   -1.8093 C   0  0  0  0  0  0  0  0  0  0  0  0
    1.3934   -3.3103   -2.1318 O   0  0  0  0  0  0  0  0  0  0  0  0
    1.9862   -1.3930   -1.0712 O   0  0  0  0  0  0  0  0  0  0  0  0
    3.0907   -1.9194   -0.3353 C   0  0  0  0  0  0  0  0  0  0  0  0
    4.3762   -1.8893   -1.1782 C   0  0  0  0  0  0  0  0  0  0  0  0
    4.8469   -3.2942   -1.5355 C   0  0  0  0  0  0  0  0  0  0  0  0
    3.1650   -1.1524    1.0280 C   0  0  0  0  0  0  0  0  0  0  0  0
    4.1662   -2.0072    1.8909 C   0  0  0  0  0  0  0  0  0  0  0  0
    1.7650   -0.9481    1.7517 C   0  0  0  0  0  0  0  0  0  0  0  0
    1.2998   -2.2760    2.4234 C   0  0  0  0  0  0  0  0  0  0  0  0
    2.1412    0.0445    2.9232 C   0  0  0  0  0  0  0  0  0  0  0  0
    3.1239    0.9845    2.3250 C   0  0  0  0  0  0  0  0  0  0  0  0
    4.4841    0.6204    2.1664 O   0  0  0  0  0  0  0  0  0  0  0  0
    3.6110    0.3303    1.0520 C   0  0  0  0  0  0  0  0  0  0  0  0
    3.6968    1.2247   -0.1160 C   0  0  0  0  0  0  0  0  0  0  0  0
    4.7853    1.2928   -0.6876 O   0  0  0  0  0  0  0  0  0  0  0  0
    2.3679    2.0839   -0.5083 C   0  0  0  0  0  0  0  0  0  0  0  0
    2.8887    3.5227   -0.7469 C   0  0  0  0  0  0  0  0  0  0  0  0
    0.9432    2.0121    0.2726 C   0  0  0  0  0  0  0  0  0  0  0  0
    0.0327    3.2549    0.4212 C   0  0  0  0  0  0  0  0  0  0  0  0
   -1.3729    3.1137   -0.0837 C   0  0  0  0  0  0  0  0  0  0  0  0
   -2.5141    3.4340    0.5534 C   0  0  0  0  0  0  0  0  0  0  0  0
   -2.6339    3.8338    1.9993 C   0  0  0  0  0  0  0  0  0  0  0  0
   -3.8293    3.5056   -0.1883 C   0  0  0  0  0  0  0  0  0  0  0  0
    0.6125    0.5968   -0.4555 C   0  0  0  0  0  0  0  0  0  0  0  0
    0.5494   -0.4461    0.8133 C   0  0  0  0  0  0  0  0  0  0  0  0
   -0.6017   -0.0834    1.6929 C   0  0  0  0  0  0  0  0  0  0  0  0
   -1.4936    0.1397    2.4686 C   0  0  0  0  0  0  0  0  0  0  0  0
   -2.5135    0.3837    3.4926 C   0  0  0  0  0  0  0  0  0  0  0  0
   -2.2441   -0.3843    4.6686 O   0  0  0  0  0  0  0  0  0  0  0  0
   -2.6344   -1.7468    4.5417 C   0  0  0  0  0  0  0  0  0  0  0  0
    1.6296    1.3718   -1.6810 C   0  0  0  0  0  0  0  0  0  0  0  0
    1.0902    2.3941   -2.7096 C   0  0  0  0  0  0  0  0  0  0  0  0
    2.4454    0.4849   -2.4769 O   0  0  0  0  0  0  0  0  0  0  0  0
   -5.7509   -2.4522   -1.7561 H   0  0  0  0  0  0  0  0  0  0  0  0
   -6.7920   -1.0214   -1.5940 H   0  0  0  0  0  0  0  0  0  0  0  0
   -6.5800   -1.7932   -3.1724 H   0  0  0  0  0  0  0  0  0  0  0  0
   -4.1920   -1.1789   -3.1959 H   0  0  0  0  0  0  0  0  0  0  0  0
   -5.2172    0.2458   -3.1030 H   0  0  0  0  0  0  0  0  0  0  0  0
   -4.7464    0.5465   -0.7048 H   0  0  0  0  0  0  0  0  0  0  0  0
   -3.9716   -1.0431   -0.6131 H   0  0  0  0  0  0  0  0  0  0  0  0
   -0.5745    0.7594   -2.2782 H   0  0  0  0  0  0  0  0  0  0  0  0
   -0.0133   -1.8504   -4.1131 H   0  0  0  0  0  0  0  0  0  0  0  0
   -2.2080   -1.9967   -2.5827 H   0  0  0  0  0  0  0  0  0  0  0  0
   -1.0589   -3.2514   -2.8087 H   0  0  0  0  0  0  0  0  0  0  0  0
   -2.0058   -2.2832   -0.0560 H   0  0  0  0  0  0  0  0  0  0  0  0
   -0.7244   -3.4750   -0.3264 H   0  0  0  0  0  0  0  0  0  0  0  0
   -2.3664   -3.8074   -0.8677 H   0  0  0  0  0  0  0  0  0  0  0  0
    2.8402   -2.9597   -0.0991 H   0  0  0  0  0  0  0  0  0  0  0  0
    5.1894   -1.3950   -0.6449 H   0  0  0  0  0  0  0  0  0  0  0  0
    4.2187   -1.3404   -2.1100 H   0  0  0  0  0  0  0  0  0  0  0  0
    5.1138   -3.8677   -0.6398 H   0  0  0  0  0  0  0  0  0  0  0  0
    5.7331   -3.2496   -2.1752 H   0  0  0  0  0  0  0  0  0  0  0  0
    4.0695   -3.8437   -2.0745 H   0  0  0  0  0  0  0  0  0  0  0  0
    4.2105   -1.6954    2.9402 H   0  0  0  0  0  0  0  0  0  0  0  0
    3.8950   -3.0694    1.8880 H   0  0  0  0  0  0  0  0  0  0  0  0
    5.1854   -1.9287    1.4992 H   0  0  0  0  0  0  0  0  0  0  0  0
    0.3766   -2.1419    2.9979 H   0  0  0  0  0  0  0  0  0  0  0  0
    2.0357   -2.6614    3.1386 H   0  0  0  0  0  0  0  0  0  0  0  0
    1.1259   -3.0559    1.6713 H   0  0  0  0  0  0  0  0  0  0  0  0
    2.5949   -0.4758    3.7753 H   0  0  0  0  0  0  0  0  0  0  0  0
    1.2795    0.5764    3.3306 H   0  0  0  0  0  0  0  0  0  0  0  0
    2.9202    2.0339    2.4500 H   0  0  0  0  0  0  0  0  0  0  0  0
    3.7227    3.5205   -1.4589 H   0  0  0  0  0  0  0  0  0  0  0  0
    3.2487    3.9612    0.1895 H   0  0  0  0  0  0  0  0  0  0  0  0
    2.1479    4.2066   -1.1645 H   0  0  0  0  0  0  0  0  0  0  0  0
    1.1581    1.8588    1.3290 H   0  0  0  0  0  0  0  0  0  0  0  0
    0.0356    3.5737    1.4680 H   0  0  0  0  0  0  0  0  0  0  0  0
    0.4507    4.1132   -0.1056 H   0  0  0  0  0  0  0  0  0  0  0  0
   -1.4480    2.8880   -1.1481 H   0  0  0  0  0  0  0  0  0  0  0  0
   -3.4571    3.2817    2.4675 H   0  0  0  0  0  0  0  0  0  0  0  0
   -1.7368    3.6143    2.5806 H   0  0  0  0  0  0  0  0  0  0  0  0
   -2.8516    4.9039    2.0801 H   0  0  0  0  0  0  0  0  0  0  0  0
   -3.7258    3.2669   -1.2522 H   0  0  0  0  0  0  0  0  0  0  0  0
   -4.2351    4.5221   -0.1221 H   0  0  0  0  0  0  0  0  0  0  0  0
   -4.5572    2.8159    0.2501 H   0  0  0  0  0  0  0  0  0  0  0  0
    0.2065   -1.3862    0.3794 H   0  0  0  0  0  0  0  0  0  0  0  0
   -2.4631    1.4332    3.7915 H   0  0  0  0  0  0  0  0  0  0  0  0
   -3.5276    0.1934    3.1259 H   0  0  0  0  0  0  0  0  0  0  0  0
   -2.1156   -2.2328    3.7094 H   0  0  0  0  0  0  0  0  0  0  0  0
   -3.7184   -1.8266    4.4070 H   0  0  0  0  0  0  0  0  0  0  0  0
   -2.3598   -2.2705    5.4634 H   0  0  0  0  0  0  0  0  0  0  0  0
    1.9192    2.9522   -3.1612 H   0  0  0  0  0  0  0  0  0  0  0  0
    0.3997    3.1199   -2.2819 H   0  0  0  0  0  0  0  0  0  0  0  0
    0.5785    1.9045   -3.5448 H   0  0  0  0  0  0  0  0  0  0  0  0
    1.8738    0.1638   -3.2024 H   0  0  0  0  0  0  0  0  0  0  0  0
  2  1  1  0  0  0  0
  3  2  1  0  0  0  0
  4  3  1  0  0  0  0
  5  4  2  0  0  0  0
  6  4  1  0  0  0  0
  7  6  1  0  0  0  0
  8  7  1  0  0  0  0
  9  8  1  0  0  0  0
 10  8  1  0  0  0  0
 11 10  1  0  0  0  0
 12  8  1  0  0  0  0
 13 12  2  0  0  0  0
 14 12  1  0  0  0  0
 15 14  1  0  0  0  0
 16 15  1  0  0  0  0
 17 16  1  0  0  0  0
 18 15  1  0  0  0  0
 19 18  1  0  0  0  0
 20 18  1  0  0  0  0
 21 20  1  0  0  0  0
 22 20  1  0  0  0  0
 23 22  1  0  0  0  0
 24 23  1  0  0  0  0
 25 24  1  0  0  0  0
 25 23  1  0  0  0  0
 25 18  1  0  0  0  0
 26 25  1  0  0  0  0
 27 26  2  0  0  0  0
 28 26  1  0  0  0  0
 29 28  1  0  0  0  0
 30 28  1  0  0  0  0
 31 30  1  0  0  0  0
 32 31  1  0  0  0  0
 33 32  2  0  0  0  0
 34 33  1  0  0  0  0
 35 33  1  0  0  0  0
 36 30  1  0  0  0  0
 36  7  1  0  0  0  0
 37 36  1  0  0  0  0
 37 20  1  0  0  0  0
 38 37  1  0  0  0  0
 39 38  3  0  0  0  0
 40 39  1  0  0  0  0
 41 40  1  0  0  0  0
 42 41  1  0  0  0  0
 43 36  1  0  0  0  0
 43 28  1  0  0  0  0
 44 43  1  0  0  0  0
 45 43  1  0  0  0  0
  1 46  1  0  0  0  0
  1 47  1  0  0  0  0
  1 48  1  0  0  0  0
  2 49  1  0  0  0  0
  2 50  1  0  0  0  0
  3 51  1  0  0  0  0
  3 52  1  0  0  0  0
  7 53  1  0  0  0  0
  9 54  1  0  0  0  0
 10 55  1  0  0  0  0
 10 56  1  0  0  0  0
 11 57  1  0  0  0  0
 11 58  1  0  0  0  0
 11 59  1  0  0  0  0
 15 60  1  0  0  0  0
 16 61  1  0  0  0  0
 16 62  1  0  0  0  0
 17 63  1  0  0  0  0
 17 64  1  0  0  0  0
 17 65  1  0  0  0  0
 19 66  1  0  0  0  0
 19 67  1  0  0  0  0
 19 68  1  0  0  0  0
 21 69  1  0  0  0  0
 21 70  1  0  0  0  0
 21 71  1  0  0  0  0
 22 72  1  0  0  0  0
 22 73  1  0  0  0  0
 23 74  1  0  0  0  0
 29 75  1  0  0  0  0
 29 76  1  0  0  0  0
 29 77  1  0  0  0  0
 30 78  1  0  0  0  0
 31 79  1  0  0  0  0
 31 80  1  0  0  0  0
 32 81  1  0  0  0  0
 34 82  1  0  0  0  0
 34 83  1  0  0  0  0
 34 84  1  0  0  0  0
 35 85  1  0  0  0  0
 35 86  1  0  0  0  0
 35 87  1  0  0  0  0
 37 88  1  0  0  0  0
 40 89  1  0  0  0  0
 40 90  1  0  0  0  0
 42 91  1  0  0  0  0
 42 92  1  0  0  0  0
 42 93  1  0  0  0  0
 44 94  1  0  0  0  0
 44 95  1  0  0  0  0
 44 96  1  0  0  0  0
 45 97  1  0  0  0  0
M  END
>  <energy>
256.7112116545336

$$$$
