CCCCCCc1c(OC2OC(=O)C(C)(O)C3CC4CC5C4(O)CC235)c[nH]c1O
                    3D

 60 64  0  0  0  0  0  0  0  0999 V2000
    5.5171   -2.5637   -1.7462 C   0  0  0  0  0  0  0  0  0  0  0  0
    5.5368   -1.3120   -0.8773 C   0  0  0  0  0  0  0  0  0  0  0  0
    4.2382   -1.1488   -0.0890 C   0  0  0  0  0  0  0  0  0  0  0  0
    4.2074    0.1815    0.6708 C   0  0  0  0  0  0  0  0  0  0  0  0
    2.8958    0.3586    1.4502 C   0  0  0  0  0  0  0  0  0  0  0  0
    2.4517    1.8229    1.5787 C   0  0  0  0  0  0  0  0  0  0  0  0
    1.8014    2.3492    0.3363 C   0  0  0  0  0  0  0  0  0  0  0  0
    0.4315    2.2553   -0.0195 C   0  0  0  0  0  0  0  0  0  0  0  0
   -0.5773    1.7795    0.7382 O   0  0  0  0  0  0  0  0  0  0  0  0
   -0.9560    0.4397    0.4010 C   0  0  0  0  0  0  0  0  0  0  0  0
   -0.4156   -0.4639    1.3852 O   0  0  0  0  0  0  0  0  0  0  0  0
   -0.6597   -1.7854    1.2072 C   0  0  0  0  0  0  0  0  0  0  0  0
    0.1558   -2.6402    1.5471 O   0  0  0  0  0  0  0  0  0  0  0  0
   -2.0255   -2.1236    0.5586 C   0  0  0  0  0  0  0  0  0  0  0  0
   -2.5121   -3.4824    1.0902 C   0  0  0  0  0  0  0  0  0  0  0  0
   -1.8954   -2.1884   -0.8592 O   0  0  0  0  0  0  0  0  0  0  0  0
   -3.0099   -0.9976    0.9428 C   0  0  0  0  0  0  0  0  0  0  0  0
   -4.4915   -1.1733    0.5509 C   0  0  0  0  0  0  0  0  0  0  0  0
   -4.9297   -0.0530   -0.3900 C   0  0  0  0  0  0  0  0  0  0  0  0
   -4.0850   -0.0673   -1.6811 C   0  0  0  0  0  0  0  0  0  0  0  0
   -3.1140    0.8812   -0.9634 C   0  0  0  0  0  0  0  0  0  0  0  0
   -4.3189    1.3565   -0.1151 C   0  0  0  0  0  0  0  0  0  0  0  0
   -5.0351    2.5191   -0.5343 O   0  0  0  0  0  0  0  0  0  0  0  0
   -3.3452    1.4718    1.0700 C   0  0  0  0  0  0  0  0  0  0  0  0
   -2.4872    0.3529    0.3856 C   0  0  0  0  0  0  0  0  0  0  0  0
    0.2382    2.9087   -1.2059 C   0  0  0  0  0  0  0  0  0  0  0  0
    1.4580    3.3765   -1.6171 N   0  0  0  0  0  0  0  0  0  0  0  0
    2.4141    3.0622   -0.6812 C   0  0  0  0  0  0  0  0  0  0  0  0
    3.6804    3.4473   -0.7981 O   0  0  0  0  0  0  0  0  0  0  0  0
    5.3789   -3.4649   -1.1408 H   0  0  0  0  0  0  0  0  0  0  0  0
    6.4640   -2.6609   -2.2843 H   0  0  0  0  0  0  0  0  0  0  0  0
    4.7098   -2.5179   -2.4852 H   0  0  0  0  0  0  0  0  0  0  0  0
    5.6967   -0.4361   -1.5191 H   0  0  0  0  0  0  0  0  0  0  0  0
    6.3832   -1.3671   -0.1840 H   0  0  0  0  0  0  0  0  0  0  0  0
    3.3891   -1.1897   -0.7850 H   0  0  0  0  0  0  0  0  0  0  0  0
    4.1164   -1.9834    0.6116 H   0  0  0  0  0  0  0  0  0  0  0  0
    4.3480    0.9969   -0.0458 H   0  0  0  0  0  0  0  0  0  0  0  0
    5.0495    0.2313    1.3746 H   0  0  0  0  0  0  0  0  0  0  0  0
    2.1009   -0.2292    0.9822 H   0  0  0  0  0  0  0  0  0  0  0  0
    3.0369   -0.0573    2.4578 H   0  0  0  0  0  0  0  0  0  0  0  0
    3.3024    2.4556    1.8615 H   0  0  0  0  0  0  0  0  0  0  0  0
    1.7261    1.9011    2.3994 H   0  0  0  0  0  0  0  0  0  0  0  0
   -0.5585    0.1368   -0.5766 H   0  0  0  0  0  0  0  0  0  0  0  0
   -1.7553   -4.2581    0.9267 H   0  0  0  0  0  0  0  0  0  0  0  0
   -3.4156   -3.8401    0.5811 H   0  0  0  0  0  0  0  0  0  0  0  0
   -2.7170   -3.4365    2.1686 H   0  0  0  0  0  0  0  0  0  0  0  0
   -1.2116   -2.8533   -1.0678 H   0  0  0  0  0  0  0  0  0  0  0  0
   -2.9893   -0.9486    2.0422 H   0  0  0  0  0  0  0  0  0  0  0  0
   -5.1107   -1.1309    1.4574 H   0  0  0  0  0  0  0  0  0  0  0  0
   -4.6875   -2.1418    0.0886 H   0  0  0  0  0  0  0  0  0  0  0  0
   -6.0079   -0.0701   -0.5892 H   0  0  0  0  0  0  0  0  0  0  0  0
   -3.6955   -1.0269   -2.0183 H   0  0  0  0  0  0  0  0  0  0  0  0
   -4.5918    0.4024   -2.5360 H   0  0  0  0  0  0  0  0  0  0  0  0
   -2.5807    1.6298   -1.5485 H   0  0  0  0  0  0  0  0  0  0  0  0
   -5.6882    2.6743    0.1683 H   0  0  0  0  0  0  0  0  0  0  0  0
   -3.7585    1.2369    2.0525 H   0  0  0  0  0  0  0  0  0  0  0  0
   -2.8718    2.4588    1.1443 H   0  0  0  0  0  0  0  0  0  0  0  0
   -0.6599    3.1121   -1.7708 H   0  0  0  0  0  0  0  0  0  0  0  0
    1.6085    3.9256   -2.4499 H   0  0  0  0  0  0  0  0  0  0  0  0
    3.8210    3.8874   -1.6511 H   0  0  0  0  0  0  0  0  0  0  0  0
  2  1  1  0  0  0  0
  3  2  1  0  0  0  0
  4  3  1  0  0  0  0
  5  4  1  0  0  0  0
  6  5  1  0  0  0  0
  7  6  1  0  0  0  0
  8  7  1  0  0  0  0
  9  8  1  0  0  0  0
 10  9  1  0  0  0  0
 11 10  1  0  0  0  0
 12 11  1  0  0  0  0
 13 12  2  0  0  0  0
 14 12  1  0  0  0  0
 15 14  1  0  0  0  0
 16 14  1  0  0  0  0
 17 14  1  0  0  0  0
 18 17  1  0  0  0  0
 19 18  1  0  0  0  0
 20 19  1  0  0  0  0
 21 20  1  0  0  0  0
 22 21  1  0  0  0  0
 22 19  1  0  0  0  0
 23 22  1  0  0  0  0
 24 22  1  0  0  0  0
 25 24  1  0  0  0  0
 25 10  1  0  0  0  0
 25 17  1  0  0  0  0
 25 21  1  0  0  0  0
 26  8  2  0  0  0  0
 27 26  1  0  0  0  0
 28 27  1  0  0  0  0
 28  7  2  0  0  0  0
 29 28  1  0  0  0  0
  1 30  1  0  0  0  0
  1 31  1  0  0  0  0
  1 32  1  0  0  0  0
  2 33  1  0  0  0  0
  2 34  1  0  0  0  0
  3 35  1  0  0  0  0
  3 36  1  0  0  0  0
  4 37  1  0  0  0  0
  4 38  1  0  0  0  0
  5 39  1  0  0  0  0
  5 40  1  0  0  0  0
  6 41  1  0  0  0  0
  6 42  1  0  0  0  0
 10 43  1  0  0  0  0
 15 44  1  0  0  0  0
 15 45  1  0  0  0  0
 15 46  1  0  0  0  0
 16 47  1  0  0  0  0
 17 48  1  0  0  0  0
 18 49  1  0  0  0  0
 18 50  1  0  0  0  0
 19 51  1  0  0  0  0
 20 52  1  0  0  0  0
 20 53  1  0  0  0  0
 21 54  1  0  0  0  0
 23 55  1  0  0  0  0
 24 56  1  0  0  0  0
 24 57  1  0  0  0  0
 26 58  1  0  0  0  0
 27 59  1  0  0  0  0
 29 60  1  0  0  0  0
M  END
>  <energy>
70.574403291212661

$$$$
