CC(C)(C)CC(O)C12C=C3C(CC(O)C1O)OC3(C)OO2
                    3D

 45 47  0  0  0  0  0  0  0  0999 V2000
   -4.1432    1.0534    0.0878 C   0  0  0  0  0  0  0  0  0  0  0  0
   -3.1734   -0.1127   -0.1662 C   0  0  0  0  0  0  0  0  0  0  0  0
   -3.9595   -1.4283   -0.0142 C   0  0  0  0  0  0  0  0  0  0  0  0
   -2.6627    0.0253   -1.6199 C   0  0  0  0  0  0  0  0  0  0  0  0
   -2.0189   -0.0700    0.8903 C   0  0  0  0  0  0  0  0  0  0  0  0
   -0.8745   -1.0723    0.6043 C   0  0  0  0  0  0  0  0  0  0  0  0
   -0.7470   -1.9954    1.7055 O   0  0  0  0  0  0  0  0  0  0  0  0
    0.4953   -0.4114    0.2490 C   0  0  0  0  0  0  0  0  0  0  0  0
    1.3388   -0.0741    1.4830 C   0  0  0  0  0  0  0  0  0  0  0  0
    2.1836    0.9687    1.3312 C   0  0  0  0  0  0  0  0  0  0  0  0
    3.4563    0.8804    0.5117 C   0  0  0  0  0  0  0  0  0  0  0  0
    3.7391   -0.4420   -0.2237 C   0  0  0  0  0  0  0  0  0  0  0  0
    2.6409   -0.8490   -1.2268 C   0  0  0  0  0  0  0  0  0  0  0  0
    3.1849   -1.9172   -2.0371 O   0  0  0  0  0  0  0  0  0  0  0  0
    1.3204   -1.4160   -0.6227 C   0  0  0  0  0  0  0  0  0  0  0  0
    1.5892   -2.6588    0.0589 O   0  0  0  0  0  0  0  0  0  0  0  0
    2.8725    1.8561   -0.3851 O   0  0  0  0  0  0  0  0  0  0  0  0
    1.7898    2.1810    0.5093 C   0  0  0  0  0  0  0  0  0  0  0  0
    1.9698    3.5553    1.1129 C   0  0  0  0  0  0  0  0  0  0  0  0
    0.4358    2.0172    0.0064 O   0  0  0  0  0  0  0  0  0  0  0  0
    0.3214    0.7140   -0.6739 O   0  0  0  0  0  0  0  0  0  0  0  0
   -3.6268    2.0193    0.0590 H   0  0  0  0  0  0  0  0  0  0  0  0
   -4.9295    1.0834   -0.6780 H   0  0  0  0  0  0  0  0  0  0  0  0
   -4.6322    0.9669    1.0645 H   0  0  0  0  0  0  0  0  0  0  0  0
   -3.3663   -2.3007   -0.3066 H   0  0  0  0  0  0  0  0  0  0  0  0
   -4.2738   -1.5760    1.0255 H   0  0  0  0  0  0  0  0  0  0  0  0
   -4.8606   -1.4263   -0.6364 H   0  0  0  0  0  0  0  0  0  0  0  0
   -1.9617   -0.7651   -1.9107 H   0  0  0  0  0  0  0  0  0  0  0  0
   -3.4952   -0.0156   -2.3333 H   0  0  0  0  0  0  0  0  0  0  0  0
   -2.1533    0.9820   -1.7683 H   0  0  0  0  0  0  0  0  0  0  0  0
   -2.4358   -0.2533    1.8934 H   0  0  0  0  0  0  0  0  0  0  0  0
   -1.6202    0.9504    0.9332 H   0  0  0  0  0  0  0  0  0  0  0  0
   -1.1637   -1.7199   -0.2277 H   0  0  0  0  0  0  0  0  0  0  0  0
    0.0248   -2.5638    1.4989 H   0  0  0  0  0  0  0  0  0  0  0  0
    1.6734   -0.9298    2.0681 H   0  0  0  0  0  0  0  0  0  0  0  0
    4.3490    1.2658    1.0097 H   0  0  0  0  0  0  0  0  0  0  0  0
    4.6838   -0.3346   -0.7758 H   0  0  0  0  0  0  0  0  0  0  0  0
    3.9113   -1.2540    0.4982 H   0  0  0  0  0  0  0  0  0  0  0  0
    2.4218   -0.0131   -1.9043 H   0  0  0  0  0  0  0  0  0  0  0  0
    2.6950   -1.8862   -2.8804 H   0  0  0  0  0  0  0  0  0  0  0  0
    0.6959   -1.6953   -1.4855 H   0  0  0  0  0  0  0  0  0  0  0  0
    2.2603   -3.1049   -0.5021 H   0  0  0  0  0  0  0  0  0  0  0  0
    1.1094    3.8318    1.7355 H   0  0  0  0  0  0  0  0  0  0  0  0
    2.0625    4.3046    0.3190 H   0  0  0  0  0  0  0  0  0  0  0  0
    2.8736    3.6305    1.7236 H   0  0  0  0  0  0  0  0  0  0  0  0
  2  1  1  0  0  0  0
  3  2  1  0  0  0  0
  4  2  1  0  0  0  0
  5  2  1  0  0  0  0
  6  5  1  0  0  0  0
  7  6  1  0  0  0  0
  8  6  1  0  0  0  0
  9  8  1  0  0  0  0
 10  9  2  0  0  0  0
 11 10  1  0  0  0  0
 12 11  1  0  0  0  0
 13 12  1  0  0  0  0
 14 13  1  0  0  0  0
 15 13  1  0  0  0  0
 15  8  1  0  0  0  0
 16 15  1  0  0  0  0
 17 11  1  0  0  0  0
 18 17  1  0  0  0  0
 18 10  1  0  0  0  0
 19 18  1  0  0  0  0
 20 18  1  0  0  0  0
 21 20  1  0  0  0  0
 21  8  1  0  0  0  0
  1 22  1  0  0  0  0
  1 23  1  0  0  0  0
  1 24  1  0  0  0  0
  3 25  1  0  0  0  0
  3 26  1  0  0  0  0
  3 27  1  0  0  0  0
  4 28  1  0  0  0  0
  4 29  1  0  0  0  0
  4 30  1  0  0  0  0
  5 31  1  0  0  0  0
  5 32  1  0  0  0  0
  6 33  1  0  0  0  0
  7 34  1  0  0  0  0
  9 35  1  0  0  0  0
 11 36  1  0  0  0  0
 12 37  1  0  0  0  0
 12 38  1  0  0  0  0
 13 39  1  0  0  0  0
 14 40  1  0  0  0  0
 15 41  1  0  0  0  0
 16 42  1  0  0  0  0
 19 43  1  0  0  0  0
 19 44  1  0  0  0  0
 19 45  1  0  0  0  0
M  END
>  <energy>
189.82681184157306

$$$$
