C#CC1CC2C3C(C=O)C2C1C3NC(=O)C(=O)NC
                    3D

 35 37  0  0  0  0  0  0  0  0999 V2000
   -0.0816    3.8655    0.8425 C   0  0  0  0  0  0  0  0  0  0  0  0
   -0.1664    2.8758    0.1746 C   0  0  0  0  0  0  0  0  0  0  0  0
   -0.2384    1.6260   -0.6048 C   0  0  0  0  0  0  0  0  0  0  0  0
   -1.5070    1.5078   -1.4590 C   0  0  0  0  0  0  0  0  0  0  0  0
   -2.3413    0.4299   -0.7638 C   0  0  0  0  0  0  0  0  0  0  0  0
   -1.8128   -1.0614   -0.6325 C   0  0  0  0  0  0  0  0  0  0  0  0
   -2.4905   -0.9927    0.7825 C   0  0  0  0  0  0  0  0  0  0  0  0
   -2.0267   -1.9059    1.9315 C   0  0  0  0  0  0  0  0  0  0  0  0
   -1.5663   -3.0408    1.8202 O   0  0  0  0  0  0  0  0  0  0  0  0
   -1.8770    0.4440    0.7193 C   0  0  0  0  0  0  0  0  0  0  0  0
   -0.3593    0.4281    0.3532 C   0  0  0  0  0  0  0  0  0  0  0  0
   -0.3107   -0.9355   -0.3633 C   0  0  0  0  0  0  0  0  0  0  0  0
    0.3544   -1.0746   -1.6322 N   0  0  0  0  0  0  0  0  0  0  0  0
    1.7163   -1.2527   -1.7467 C   0  0  0  0  0  0  0  0  0  0  0  0
    2.1876   -2.0375   -2.5533 O   0  0  0  0  0  0  0  0  0  0  0  0
    2.6215   -0.4221   -0.8257 C   0  0  0  0  0  0  0  0  0  0  0  0
    3.1214    0.6187   -1.2395 O   0  0  0  0  0  0  0  0  0  0  0  0
    2.7792   -0.9452    0.4404 N   0  0  0  0  0  0  0  0  0  0  0  0
    3.6795   -0.2973    1.3510 C   0  0  0  0  0  0  0  0  0  0  0  0
    0.0314    4.7428    1.4416 H   0  0  0  0  0  0  0  0  0  0  0  0
    0.6473    1.5757   -1.2398 H   0  0  0  0  0  0  0  0  0  0  0  0
   -1.2746    1.2176   -2.4919 H   0  0  0  0  0  0  0  0  0  0  0  0
   -2.0552    2.4572   -1.5069 H   0  0  0  0  0  0  0  0  0  0  0  0
   -3.4163    0.5204   -0.9651 H   0  0  0  0  0  0  0  0  0  0  0  0
   -2.1907   -1.8181   -1.3232 H   0  0  0  0  0  0  0  0  0  0  0  0
   -3.5919   -1.0311    0.7172 H   0  0  0  0  0  0  0  0  0  0  0  0
   -2.1094   -1.4431    2.9349 H   0  0  0  0  0  0  0  0  0  0  0  0
   -2.2809    1.2358    1.3579 H   0  0  0  0  0  0  0  0  0  0  0  0
    0.3021    0.4754    1.2243 H   0  0  0  0  0  0  0  0  0  0  0  0
    0.0543   -1.7319    0.2986 H   0  0  0  0  0  0  0  0  0  0  0  0
   -0.1030   -1.6772   -2.3041 H   0  0  0  0  0  0  0  0  0  0  0  0
    2.5843   -1.9366    0.5492 H   0  0  0  0  0  0  0  0  0  0  0  0
    3.5457    0.7833    1.2950 H   0  0  0  0  0  0  0  0  0  0  0  0
    3.4838   -0.6388    2.3669 H   0  0  0  0  0  0  0  0  0  0  0  0
    4.6913   -0.5613    1.0514 H   0  0  0  0  0  0  0  0  0  0  0  0
  2  1  3  0  0  0  0
  3  2  1  0  0  0  0
  4  3  1  0  0  0  0
  5  4  1  0  0  0  0
  6  5  1  0  0  0  0
  7  6  1  0  0  0  0
  8  7  1  0  0  0  0
  9  8  2  0  0  0  0
 10  7  1  0  0  0  0
 10  5  1  0  0  0  0
 11 10  1  0  0  0  0
 11  3  1  0  0  0  0
 12 11  1  0  0  0  0
 12  6  1  0  0  0  0
 13 12  1  0  0  0  0
 14 13  1  0  0  0  0
 15 14  2  0  0  0  0
 16 14  1  0  0  0  0
 17 16  2  0  0  0  0
 18 16  1  0  0  0  0
 19 18  1  0  0  0  0
  1 20  1  0  0  0  0
  3 21  1  0  0  0  0
  4 22  1  0  0  0  0
  4 23  1  0  0  0  0
  5 24  1  0  0  0  0
  6 25  1  0  0  0  0
  7 26  1  0  0  0  0
  8 27  1  0  0  0  0
 10 28  1  0  0  0  0
 11 29  1  0  0  0  0
 12 30  1  0  0  0  0
 13 31  1  0  0  0  0
 18 32  1  0  0  0  0
 19 33  1  0  0  0  0
 19 34  1  0  0  0  0
 19 35  1  0  0  0  0
M  END
>  <energy>
76.650364650161194

$$$$
