N#Cc1c[nH]c(=Nc2nc3n(C(O)C(N)CSc4ccc(Cc5nn[nH]n5)nn4)c2N=CNC3=N)[nH]1
                    3D

 54 58  0  0  0  0  0  0  0  0999 V2000
    3.2459   -4.5710   -2.7569 N   0  0  0  0  0  0  0  0  0  0  0  0
    2.9491   -4.3463   -1.6600 C   0  0  0  0  0  0  0  0  0  0  0  0
    2.6091   -4.0098   -0.3345 C   0  0  0  0  0  0  0  0  0  0  0  0
    2.7160   -4.7084    0.8077 C   0  0  0  0  0  0  0  0  0  0  0  0
    2.3214   -3.8666    1.8366 N   0  0  0  0  0  0  0  0  0  0  0  0
    2.0430   -2.5838    1.3604 C   0  0  0  0  0  0  0  0  0  0  0  0
    1.8300   -1.5756    2.1227 N   0  0  0  0  0  0  0  0  0  0  0  0
    1.5460   -0.3379    1.5239 C   0  0  0  0  0  0  0  0  0  0  0  0
    1.4187    0.8088    2.2956 N   0  0  0  0  0  0  0  0  0  0  0  0
    1.6271    1.7831    1.4105 C   0  0  0  0  0  0  0  0  0  0  0  0
    1.0609    1.2925    0.2584 N   0  0  0  0  0  0  0  0  0  0  0  0
   -0.1690    1.7187   -0.3833 C   0  0  0  0  0  0  0  0  0  0  0  0
   -0.1385    1.2359   -1.7296 O   0  0  0  0  0  0  0  0  0  0  0  0
   -0.3571    3.2807   -0.3674 C   0  0  0  0  0  0  0  0  0  0  0  0
   -0.7509    3.7957    0.9561 N   0  0  0  0  0  0  0  0  0  0  0  0
   -1.2752    3.8370   -1.4913 C   0  0  0  0  0  0  0  0  0  0  0  0
   -3.0864    3.8276   -1.2392 S   0  0  0  0  0  0  0  0  0  0  0  0
   -3.3958    2.0879   -1.2370 C   0  0  0  0  0  0  0  0  0  0  0  0
   -3.1909    1.2756   -2.3380 C   0  0  0  0  0  0  0  0  0  0  0  0
   -3.3617   -0.1065   -2.1977 C   0  0  0  0  0  0  0  0  0  0  0  0
   -3.7479   -0.6269   -0.9647 C   0  0  0  0  0  0  0  0  0  0  0  0
   -3.9724   -2.1017   -0.7360 C   0  0  0  0  0  0  0  0  0  0  0  0
   -3.3301   -2.4419    0.5637 C   0  0  0  0  0  0  0  0  0  0  0  0
   -4.0641   -2.8643    1.6454 N   0  0  0  0  0  0  0  0  0  0  0  0
   -3.2027   -3.0769    2.6298 N   0  0  0  0  0  0  0  0  0  0  0  0
   -2.0042   -2.7713    2.1093 N   0  0  0  0  0  0  0  0  0  0  0  0
   -2.0043   -2.4220    0.8031 N   0  0  0  0  0  0  0  0  0  0  0  0
   -4.0042    0.2120    0.0608 N   0  0  0  0  0  0  0  0  0  0  0  0
   -3.8081    1.5641   -0.0720 N   0  0  0  0  0  0  0  0  0  0  0  0
    1.7163    0.0808    0.1951 C   0  0  0  0  0  0  0  0  0  0  0  0
    2.7442   -0.1244   -0.6889 N   0  0  0  0  0  0  0  0  0  0  0  0
    3.7156    0.7344   -0.5200 C   0  0  0  0  0  0  0  0  0  0  0  0
    3.8602    1.8321    0.3335 N   0  0  0  0  0  0  0  0  0  0  0  0
    2.9631    2.3880    1.2518 C   0  0  0  0  0  0  0  0  0  0  0  0
    3.2358    3.4354    1.9618 N   0  0  0  0  0  0  0  0  0  0  0  0
    2.1237   -2.7509   -0.0207 N   0  0  0  0  0  0  0  0  0  0  0  0
    3.0656   -5.7098    0.9928 H   0  0  0  0  0  0  0  0  0  0  0  0
    2.6037   -4.0114    2.7998 H   0  0  0  0  0  0  0  0  0  0  0  0
   -0.9887    1.2192    0.1457 H   0  0  0  0  0  0  0  0  0  0  0  0
   -0.2068    0.2687   -1.6420 H   0  0  0  0  0  0  0  0  0  0  0  0
    0.6279    3.7163   -0.5895 H   0  0  0  0  0  0  0  0  0  0  0  0
   -0.0089    3.6950    1.6546 H   0  0  0  0  0  0  0  0  0  0  0  0
   -0.9883    4.7914    0.9146 H   0  0  0  0  0  0  0  0  0  0  0  0
   -1.0294    3.3919   -2.4632 H   0  0  0  0  0  0  0  0  0  0  0  0
   -1.0358    4.9060   -1.5891 H   0  0  0  0  0  0  0  0  0  0  0  0
   -2.8761    1.6999   -3.2868 H   0  0  0  0  0  0  0  0  0  0  0  0
   -3.1663   -0.7515   -3.0501 H   0  0  0  0  0  0  0  0  0  0  0  0
   -5.0497   -2.3008   -0.6979 H   0  0  0  0  0  0  0  0  0  0  0  0
   -3.5427   -2.7086   -1.5433 H   0  0  0  0  0  0  0  0  0  0  0  0
   -1.1541   -2.8279    2.6661 H   0  0  0  0  0  0  0  0  0  0  0  0
    4.6038    0.6313   -1.1712 H   0  0  0  0  0  0  0  0  0  0  0  0
    4.7618    2.2872    0.3024 H   0  0  0  0  0  0  0  0  0  0  0  0
    4.1878    3.7590    1.7953 H   0  0  0  0  0  0  0  0  0  0  0  0
    2.3332   -1.9601   -0.6270 H   0  0  0  0  0  0  0  0  0  0  0  0
  2  1  3  0  0  0  0
  3  2  1  0  0  0  0
  4  3  2  0  0  0  0
  5  4  1  0  0  0  0
  6  5  1  0  0  0  0
  7  6  2  0  0  0  0
  8  7  1  0  0  0  0
  9  8  1  0  0  0  0
 10  9  2  0  0  0  0
 11 10  1  0  0  0  0
 12 11  1  0  0  0  0
 13 12  1  0  0  0  0
 14 12  1  0  0  0  0
 15 14  1  0  0  0  0
 16 14  1  0  0  0  0
 17 16  1  0  0  0  0
 18 17  1  0  0  0  0
 19 18  2  0  0  0  0
 20 19  1  0  0  0  0
 21 20  2  0  0  0  0
 22 21  1  0  0  0  0
 23 22  1  0  0  0  0
 24 23  1  0  0  0  0
 25 24  2  0  0  0  0
 26 25  1  0  0  0  0
 27 26  1  0  0  0  0
 27 23  2  0  0  0  0
 28 21  1  0  0  0  0
 29 28  2  0  0  0  0
 29 18  1  0  0  0  0
 30 11  1  0  0  0  0
 30  8  2  0  0  0  0
 31 30  1  0  0  0  0
 32 31  2  0  0  0  0
 33 32  1  0  0  0  0
 34 33  1  0  0  0  0
 34 10  1  0  0  0  0
 35 34  2  0  0  0  0
 36  6  1  0  0  0  0
 36  3  1  0  0  0  0
  4 37  1  0  0  0  0
  5 38  1  0  0  0  0
 12 39  1  0  0  0  0
 13 40  1  0  0  0  0
 14 41  1  0  0  0  0
 15 42  1  0  0  0  0
 15 43  1  0  0  0  0
 16 44  1  0  0  0  0
 16 45  1  0  0  0  0
 19 46  1  0  0  0  0
 20 47  1  0  0  0  0
 22 48  1  0  0  0  0
 22 49  1  0  0  0  0
 26 50  1  0  0  0  0
 32 51  1  0  0  0  0
 33 52  1  0  0  0  0
 35 53  1  0  0  0  0
 36 54  1  0  0  0  0
M  END
>  <energy>
147.81818021203532

$$$$
