N=c1[nH]c(=NC(N)N)c2c3nc(OCCN)n4c3nc(=N)c(ncn4CC(O)CO)c2[nH]1
                    3D

 55 58  0  0  0  0  0  0  0  0999 V2000
    4.4183   -0.8299    3.6482 N   0  0  0  0  0  0  0  0  0  0  0  0
    3.3416   -0.5406    3.0048 C   0  0  0  0  0  0  0  0  0  0  0  0
    3.1811    0.5486    2.1837 N   0  0  0  0  0  0  0  0  0  0  0  0
    2.1030    0.7725    1.3412 C   0  0  0  0  0  0  0  0  0  0  0  0
    1.7958    1.8512    0.7006 N   0  0  0  0  0  0  0  0  0  0  0  0
    2.5662    3.0374    0.8847 C   0  0  0  0  0  0  0  0  0  0  0  0
    1.8286    4.1310    0.3401 N   0  0  0  0  0  0  0  0  0  0  0  0
    3.7379    3.0418    0.0831 N   0  0  0  0  0  0  0  0  0  0  0  0
    1.1783   -0.3923    1.2425 C   0  0  0  0  0  0  0  0  0  0  0  0
    0.7068   -0.8684    0.0796 C   0  0  0  0  0  0  0  0  0  0  0  0
    0.5788   -0.0890   -1.0777 N   0  0  0  0  0  0  0  0  0  0  0  0
   -0.5526   -0.5514   -1.6063 C   0  0  0  0  0  0  0  0  0  0  0  0
   -0.9970   -0.2418   -2.8182 O   0  0  0  0  0  0  0  0  0  0  0  0
   -1.0974   -1.3732   -3.6954 C   0  0  0  0  0  0  0  0  0  0  0  0
    0.2174   -1.6279   -4.4453 C   0  0  0  0  0  0  0  0  0  0  0  0
    1.2607   -2.2002   -3.5887 N   0  0  0  0  0  0  0  0  0  0  0  0
   -1.1778   -1.4405   -0.7158 N   0  0  0  0  0  0  0  0  0  0  0  0
   -0.1455   -1.9719    0.0021 C   0  0  0  0  0  0  0  0  0  0  0  0
   -0.2859   -3.0973    0.6312 N   0  0  0  0  0  0  0  0  0  0  0  0
    0.1441   -3.1252    1.9154 C   0  0  0  0  0  0  0  0  0  0  0  0
    0.6704   -4.1969    2.3844 N   0  0  0  0  0  0  0  0  0  0  0  0
   -0.1502   -1.8297    2.6262 C   0  0  0  0  0  0  0  0  0  0  0  0
   -1.4318   -1.2792    2.5104 N   0  0  0  0  0  0  0  0  0  0  0  0
   -2.2347   -1.0895    1.5044 C   0  0  0  0  0  0  0  0  0  0  0  0
   -2.3488   -1.1618    0.0885 N   0  0  0  0  0  0  0  0  0  0  0  0
   -3.4916   -0.5817   -0.6262 C   0  0  0  0  0  0  0  0  0  0  0  0
   -3.4295    0.9444   -0.8398 C   0  0  0  0  0  0  0  0  0  0  0  0
   -4.6176    1.3562   -1.5457 O   0  0  0  0  0  0  0  0  0  0  0  0
   -3.3542    1.7611    0.4506 C   0  0  0  0  0  0  0  0  0  0  0  0
   -3.3487    3.1469    0.0985 O   0  0  0  0  0  0  0  0  0  0  0  0
    1.0050   -1.1232    2.5024 C   0  0  0  0  0  0  0  0  0  0  0  0
    2.2267   -1.3315    3.1380 N   0  0  0  0  0  0  0  0  0  0  0  0
    5.1503   -0.1492    3.4430 H   0  0  0  0  0  0  0  0  0  0  0  0
    3.9476    1.1989    2.0954 H   0  0  0  0  0  0  0  0  0  0  0  0
    2.8084    3.2262    1.9398 H   0  0  0  0  0  0  0  0  0  0  0  0
    1.0005    4.2442    0.9254 H   0  0  0  0  0  0  0  0  0  0  0  0
    1.4376    3.7820   -0.5360 H   0  0  0  0  0  0  0  0  0  0  0  0
    3.4351    2.7971   -0.8590 H   0  0  0  0  0  0  0  0  0  0  0  0
    3.9946    4.0286   -0.0005 H   0  0  0  0  0  0  0  0  0  0  0  0
   -1.8744   -1.1307   -4.4259 H   0  0  0  0  0  0  0  0  0  0  0  0
   -1.4351   -2.2747   -3.1688 H   0  0  0  0  0  0  0  0  0  0  0  0
    0.5926   -0.6937   -4.8732 H   0  0  0  0  0  0  0  0  0  0  0  0
    0.0281   -2.3292   -5.2615 H   0  0  0  0  0  0  0  0  0  0  0  0
    2.0828   -2.4182   -4.1544 H   0  0  0  0  0  0  0  0  0  0  0  0
    1.5791   -1.4754   -2.9355 H   0  0  0  0  0  0  0  0  0  0  0  0
    0.8588   -4.0935    3.3826 H   0  0  0  0  0  0  0  0  0  0  0  0
   -3.2045   -0.7131    1.8782 H   0  0  0  0  0  0  0  0  0  0  0  0
   -4.4113   -0.8269   -0.0818 H   0  0  0  0  0  0  0  0  0  0  0  0
   -3.6288   -1.0854   -1.5935 H   0  0  0  0  0  0  0  0  0  0  0  0
   -2.5950    1.2253   -1.4860 H   0  0  0  0  0  0  0  0  0  0  0  0
   -4.5906    2.3363   -1.5101 H   0  0  0  0  0  0  0  0  0  0  0  0
   -4.2306    1.5932    1.0813 H   0  0  0  0  0  0  0  0  0  0  0  0
   -2.4435    1.5450    1.0194 H   0  0  0  0  0  0  0  0  0  0  0  0
   -3.0963    3.6409    0.8994 H   0  0  0  0  0  0  0  0  0  0  0  0
    2.2972   -2.0755    3.8203 H   0  0  0  0  0  0  0  0  0  0  0  0
  2  1  2  0  0  0  0
  3  2  1  0  0  0  0
  4  3  1  0  0  0  0
  5  4  2  0  0  0  0
  6  5  1  0  0  0  0
  7  6  1  0  0  0  0
  8  6  1  0  0  0  0
  9  4  1  0  0  0  0
 10  9  2  0  0  0  0
 11 10  1  0  0  0  0
 12 11  2  0  0  0  0
 13 12  1  0  0  0  0
 14 13  1  0  0  0  0
 15 14  1  0  0  0  0
 16 15  1  0  0  0  0
 17 12  1  0  0  0  0
 18 17  1  0  0  0  0
 18 10  1  0  0  0  0
 19 18  2  0  0  0  0
 20 19  1  0  0  0  0
 21 20  2  0  0  0  0
 22 20  1  0  0  0  0
 23 22  1  0  0  0  0
 24 23  2  0  0  0  0
 25 24  1  0  0  0  0
 25 17  1  0  0  0  0
 26 25  1  0  0  0  0
 27 26  1  0  0  0  0
 28 27  1  0  0  0  0
 29 27  1  0  0  0  0
 30 29  1  0  0  0  0
 31 22  2  0  0  0  0
 31  9  1  0  0  0  0
 32 31  1  0  0  0  0
 32  2  1  0  0  0  0
  1 33  1  0  0  0  0
  3 34  1  0  0  0  0
  6 35  1  0  0  0  0
  7 36  1  0  0  0  0
  7 37  1  0  0  0  0
  8 38  1  0  0  0  0
  8 39  1  0  0  0  0
 14 40  1  0  0  0  0
 14 41  1  0  0  0  0
 15 42  1  0  0  0  0
 15 43  1  0  0  0  0
 16 44  1  0  0  0  0
 16 45  1  0  0  0  0
 21 46  1  0  0  0  0
 24 47  1  0  0  0  0
 26 48  1  0  0  0  0
 26 49  1  0  0  0  0
 27 50  1  0  0  0  0
 28 51  1  0  0  0  0
 29 52  1  0  0  0  0
 29 53  1  0  0  0  0
 30 54  1  0  0  0  0
 32 55  1  0  0  0  0
M  END
>  <energy>
-9.0528347846195913

$$$$
