C=CC(C)(OC(=[N-])OCCC)C1C=CC12C1C=CC3C(C)C2C31Cl
                    3D

 49 52  0  0  0  0  0  0  0  0999 V2000
    0.1062    3.8494   -0.7932 C   0  0  0  0  0  0  0  0  0  0  0  0
   -0.2269    3.1967    0.3317 C   0  0  0  0  0  0  0  0  0  0  0  0
   -1.0677    1.9109    0.4381 C   0  0  0  0  0  0  0  0  0  0  0  0
   -2.4093    2.2775    1.0945 C   0  0  0  0  0  0  0  0  0  0  0  0
   -1.3143    1.4533   -0.9189 O   0  0  0  0  0  0  0  0  0  0  0  0
   -1.9437    0.3217   -1.2752 C   0  0  0  0  0  0  0  0  0  0  0  0
   -2.2249    0.1554   -2.5453 N   0  5  0  0  0  0  0  0  0  0  0  0
   -2.2453   -0.5872   -0.3345 O   0  0  0  0  0  0  0  0  0  0  0  0
   -2.4205   -1.9587   -0.7479 C   0  0  0  0  0  0  0  0  0  0  0  0
   -3.8903   -2.3485   -0.8294 C   0  0  0  0  0  0  0  0  0  0  0  0
   -4.0321   -3.7691   -1.3612 C   0  0  0  0  0  0  0  0  0  0  0  0
   -0.3373    0.8448    1.3063 C   0  0  0  0  0  0  0  0  0  0  0  0
    0.2903    1.3379    2.6291 C   0  0  0  0  0  0  0  0  0  0  0  0
    1.5166    0.8813    2.3186 C   0  0  0  0  0  0  0  0  0  0  0  0
    1.0621    0.2754    1.0304 C   0  0  0  0  0  0  0  0  0  0  0  0
    1.1463   -1.2453    0.8344 C   0  0  0  0  0  0  0  0  0  0  0  0
    2.2467   -1.9786    1.5429 C   0  0  0  0  0  0  0  0  0  0  0  0
    3.4006   -1.9116    0.8606 C   0  0  0  0  0  0  0  0  0  0  0  0
    3.2407   -1.0986   -0.3825 C   0  0  0  0  0  0  0  0  0  0  0  0
    3.3415    0.4428   -0.1856 C   0  0  0  0  0  0  0  0  0  0  0  0
    4.0736    1.1881   -1.2902 C   0  0  0  0  0  0  0  0  0  0  0  0
    1.7930    0.5625   -0.2611 C   0  0  0  0  0  0  0  0  0  0  0  0
    1.7108   -0.9362   -0.6036 C   0  0  0  0  0  0  0  0  0  0  0  0
    1.0299   -1.5922   -2.0592 Cl  0  0  0  0  0  0  0  0  0  0  0  0
   -0.2180    3.4888   -1.7675 H   0  0  0  0  0  0  0  0  0  0  0  0
    0.7036    4.7535   -0.7728 H   0  0  0  0  0  0  0  0  0  0  0  0
    0.1142    3.6195    1.2722 H   0  0  0  0  0  0  0  0  0  0  0  0
   -2.2734    2.7035    2.0942 H   0  0  0  0  0  0  0  0  0  0  0  0
   -2.9637    3.0014    0.4877 H   0  0  0  0  0  0  0  0  0  0  0  0
   -3.0570    1.4036    1.2065 H   0  0  0  0  0  0  0  0  0  0  0  0
   -1.9044   -2.1728   -1.6915 H   0  0  0  0  0  0  0  0  0  0  0  0
   -1.9306   -2.5734    0.0170 H   0  0  0  0  0  0  0  0  0  0  0  0
   -4.4373   -1.6524   -1.4741 H   0  0  0  0  0  0  0  0  0  0  0  0
   -4.3493   -2.2740    0.1635 H   0  0  0  0  0  0  0  0  0  0  0  0
   -3.6218   -3.8460   -2.3743 H   0  0  0  0  0  0  0  0  0  0  0  0
   -3.4953   -4.4818   -0.7257 H   0  0  0  0  0  0  0  0  0  0  0  0
   -5.0823   -4.0722   -1.3978 H   0  0  0  0  0  0  0  0  0  0  0  0
   -1.0504    0.0393    1.5253 H   0  0  0  0  0  0  0  0  0  0  0  0
   -0.1282    1.8858    3.4660 H   0  0  0  0  0  0  0  0  0  0  0  0
    2.4713    0.9260    2.8295 H   0  0  0  0  0  0  0  0  0  0  0  0
    0.2016   -1.7940    0.8586 H   0  0  0  0  0  0  0  0  0  0  0  0
    2.1102   -2.4919    2.4826 H   0  0  0  0  0  0  0  0  0  0  0  0
    4.3303   -2.3707    1.1548 H   0  0  0  0  0  0  0  0  0  0  0  0
    3.7961   -1.5078   -1.2338 H   0  0  0  0  0  0  0  0  0  0  0  0
    3.7747    0.7418    0.7795 H   0  0  0  0  0  0  0  0  0  0  0  0
    3.9390    2.2670   -1.1742 H   0  0  0  0  0  0  0  0  0  0  0  0
    3.7073    0.9111   -2.2828 H   0  0  0  0  0  0  0  0  0  0  0  0
    5.1464    0.9715   -1.2537 H   0  0  0  0  0  0  0  0  0  0  0  0
    1.3710    1.2524   -0.9881 H   0  0  0  0  0  0  0  0  0  0  0  0
  2  1  2  0  0  0  0
  3  2  1  0  0  0  0
  4  3  1  0  0  0  0
  5  3  1  0  0  0  0
  6  5  1  0  0  0  0
  7  6  2  0  0  0  0
  8  6  1  0  0  0  0
  9  8  1  0  0  0  0
 10  9  1  0  0  0  0
 11 10  1  0  0  0  0
 12  3  1  0  0  0  0
 13 12  1  0  0  0  0
 14 13  2  0  0  0  0
 15 14  1  0  0  0  0
 15 12  1  0  0  0  0
 16 15  1  0  0  0  0
 17 16  1  0  0  0  0
 18 17  2  0  0  0  0
 19 18  1  0  0  0  0
 20 19  1  0  0  0  0
 21 20  1  0  0  0  0
 22 20  1  0  0  0  0
 22 15  1  0  0  0  0
 23 22  1  0  0  0  0
 23 19  1  0  0  0  0
 23 16  1  0  0  0  0
 24 23  1  0  0  0  0
  1 25  1  0  0  0  0
  1 26  1  0  0  0  0
  2 27  1  0  0  0  0
  4 28  1  0  0  0  0
  4 29  1  0  0  0  0
  4 30  1  0  0  0  0
  9 31  1  0  0  0  0
  9 32  1  0  0  0  0
 10 33  1  0  0  0  0
 10 34  1  0  0  0  0
 11 35  1  0  0  0  0
 11 36  1  0  0  0  0
 11 37  1  0  0  0  0
 12 38  1  0  0  0  0
 13 39  1  0  0  0  0
 14 40  1  0  0  0  0
 16 41  1  0  0  0  0
 17 42  1  0  0  0  0
 18 43  1  0  0  0  0
 19 44  1  0  0  0  0
 20 45  1  0  0  0  0
 21 46  1  0  0  0  0
 21 47  1  0  0  0  0
 21 48  1  0  0  0  0
 22 49  1  0  0  0  0
M  CHG  1   7  -1
M  END
>  <energy>
73.450936014943238

$$$$
