CCC1CC2(OC)CC34CN5CCCC5C=C(C13)C2(OC)C(OC)C4(O)CO
                    3D

 63 67  0  0  0  0  0  0  0  0999 V2000
   -2.9573    3.0239    2.0070 C   0  0  0  0  0  0  0  0  0  0  0  0
   -1.6755    2.2463    1.7385 C   0  0  0  0  0  0  0  0  0  0  0  0
   -1.6298    1.6381    0.3201 C   0  0  0  0  0  0  0  0  0  0  0  0
   -2.7373    0.6176    0.0801 C   0  0  0  0  0  0  0  0  0  0  0  0
   -2.0994   -0.5207   -0.7115 C   0  0  0  0  0  0  0  0  0  0  0  0
   -3.1098   -1.3437   -1.2989 O   0  0  0  0  0  0  0  0  0  0  0  0
   -3.7980   -2.2317   -0.4344 C   0  0  0  0  0  0  0  0  0  0  0  0
   -1.3582    0.2307   -1.9528 C   0  0  0  0  0  0  0  0  0  0  0  0
    0.0853    0.3651   -1.4508 C   0  0  0  0  0  0  0  0  0  0  0  0
    1.2152    1.2900   -1.8878 C   0  0  0  0  0  0  0  0  0  0  0  0
    2.3965    1.2707   -0.9373 N   0  0  0  0  0  0  0  0  0  0  0  0
    3.1120    2.5588   -0.9429 C   0  0  0  0  0  0  0  0  0  0  0  0
    3.7629    2.6916    0.4275 C   0  0  0  0  0  0  0  0  0  0  0  0
    2.8433    1.9096    1.3492 C   0  0  0  0  0  0  0  0  0  0  0  0
    2.4523    0.7214    0.4755 C   0  0  0  0  0  0  0  0  0  0  0  0
    1.3833   -0.2258    1.1007 C   0  0  0  0  0  0  0  0  0  0  0  0
    0.0825   -0.1828    0.7403 C   0  0  0  0  0  0  0  0  0  0  0  0
   -0.2332    1.0180   -0.0188 C   0  0  0  0  0  0  0  0  0  0  0  0
   -0.9289   -1.2888    0.2716 C   0  0  0  0  0  0  0  0  0  0  0  0
   -1.4967   -2.0835    1.3078 O   0  0  0  0  0  0  0  0  0  0  0  0
   -1.6307   -1.5287    2.6010 C   0  0  0  0  0  0  0  0  0  0  0  0
   -0.2145   -2.1866   -0.7899 C   0  0  0  0  0  0  0  0  0  0  0  0
    0.3612   -3.4428   -0.4197 O   0  0  0  0  0  0  0  0  0  0  0  0
    1.1499   -3.5584    0.7379 C   0  0  0  0  0  0  0  0  0  0  0  0
    0.6404   -1.2170   -1.6904 C   0  0  0  0  0  0  0  0  0  0  0  0
    0.3068   -1.5489   -3.0898 O   0  0  0  0  0  0  0  0  0  0  0  0
    2.1617   -1.5317   -1.7245 C   0  0  0  0  0  0  0  0  0  0  0  0
    2.3829   -2.8317   -2.3106 O   0  0  0  0  0  0  0  0  0  0  0  0
   -3.8376    2.3763    1.9721 H   0  0  0  0  0  0  0  0  0  0  0  0
   -3.0885    3.8237    1.2728 H   0  0  0  0  0  0  0  0  0  0  0  0
   -2.9211    3.4826    3.0007 H   0  0  0  0  0  0  0  0  0  0  0  0
   -0.8273    2.9301    1.8680 H   0  0  0  0  0  0  0  0  0  0  0  0
   -1.5619    1.4685    2.5003 H   0  0  0  0  0  0  0  0  0  0  0  0
   -1.7770    2.4762   -0.3763 H   0  0  0  0  0  0  0  0  0  0  0  0
   -3.2056    0.2644    1.0001 H   0  0  0  0  0  0  0  0  0  0  0  0
   -3.5539    1.0774   -0.4911 H   0  0  0  0  0  0  0  0  0  0  0  0
   -4.1686   -1.7267    0.4607 H   0  0  0  0  0  0  0  0  0  0  0  0
   -3.1679   -3.0853   -0.1711 H   0  0  0  0  0  0  0  0  0  0  0  0
   -4.6606   -2.6258   -0.9815 H   0  0  0  0  0  0  0  0  0  0  0  0
   -1.4934   -0.3333   -2.8791 H   0  0  0  0  0  0  0  0  0  0  0  0
   -1.8111    1.2038   -2.1790 H   0  0  0  0  0  0  0  0  0  0  0  0
    1.5704    1.0372   -2.8927 H   0  0  0  0  0  0  0  0  0  0  0  0
    0.8112    2.3079   -1.9764 H   0  0  0  0  0  0  0  0  0  0  0  0
    2.4216    3.4002   -1.0720 H   0  0  0  0  0  0  0  0  0  0  0  0
    3.8543    2.5971   -1.7457 H   0  0  0  0  0  0  0  0  0  0  0  0
    4.7593    2.2324    0.4176 H   0  0  0  0  0  0  0  0  0  0  0  0
    3.8693    3.7349    0.7379 H   0  0  0  0  0  0  0  0  0  0  0  0
    3.3565    1.6057    2.2666 H   0  0  0  0  0  0  0  0  0  0  0  0
    1.9767    2.5185    1.6301 H   0  0  0  0  0  0  0  0  0  0  0  0
    3.3520    0.0880    0.4489 H   0  0  0  0  0  0  0  0  0  0  0  0
    1.7909   -1.1008    1.5926 H   0  0  0  0  0  0  0  0  0  0  0  0
    0.4066    1.8740    0.2045 H   0  0  0  0  0  0  0  0  0  0  0  0
   -2.0520   -2.3018    3.2511 H   0  0  0  0  0  0  0  0  0  0  0  0
   -2.3201   -0.6863    2.6126 H   0  0  0  0  0  0  0  0  0  0  0  0
   -0.6627   -1.2439    3.0217 H   0  0  0  0  0  0  0  0  0  0  0  0
   -1.0103   -2.5661   -1.4424 H   0  0  0  0  0  0  0  0  0  0  0  0
    0.6379   -3.2047    1.6318 H   0  0  0  0  0  0  0  0  0  0  0  0
    1.3633   -4.6212    0.8868 H   0  0  0  0  0  0  0  0  0  0  0  0
    2.1096   -3.0596    0.6176 H   0  0  0  0  0  0  0  0  0  0  0  0
    0.6919   -2.4456   -3.2172 H   0  0  0  0  0  0  0  0  0  0  0  0
    2.6939   -0.8478   -2.3906 H   0  0  0  0  0  0  0  0  0  0  0  0
    2.6408   -1.5415   -0.7532 H   0  0  0  0  0  0  0  0  0  0  0  0
    3.3463   -2.9676   -2.3230 H   0  0  0  0  0  0  0  0  0  0  0  0
  2  1  1  0  0  0  0
  3  2  1  0  0  0  0
  4  3  1  0  0  0  0
  5  4  1  0  0  0  0
  6  5  1  0  0  0  0
  7  6  1  0  0  0  0
  8  5  1  0  0  0  0
  9  8  1  0  0  0  0
 10  9  1  0  0  0  0
 11 10  1  0  0  0  0
 12 11  1  0  0  0  0
 13 12  1  0  0  0  0
 14 13  1  0  0  0  0
 15 14  1  0  0  0  0
 15 11  1  0  0  0  0
 16 15  1  0  0  0  0
 17 16  2  0  0  0  0
 18 17  1  0  0  0  0
 18  3  1  0  0  0  0
 18  9  1  0  0  0  0
 19 17  1  0  0  0  0
 19  5  1  0  0  0  0
 20 19  1  0  0  0  0
 21 20  1  0  0  0  0
 22 19  1  0  0  0  0
 23 22  1  0  0  0  0
 24 23  1  0  0  0  0
 25 22  1  0  0  0  0
 25  9  1  0  0  0  0
 26 25  1  0  0  0  0
 27 25  1  0  0  0  0
 28 27  1  0  0  0  0
  1 29  1  0  0  0  0
  1 30  1  0  0  0  0
  1 31  1  0  0  0  0
  2 32  1  0  0  0  0
  2 33  1  0  0  0  0
  3 34  1  0  0  0  0
  4 35  1  0  0  0  0
  4 36  1  0  0  0  0
  7 37  1  0  0  0  0
  7 38  1  0  0  0  0
  7 39  1  0  0  0  0
  8 40  1  0  0  0  0
  8 41  1  0  0  0  0
 10 42  1  0  0  0  0
 10 43  1  0  0  0  0
 12 44  1  0  0  0  0
 12 45  1  0  0  0  0
 13 46  1  0  0  0  0
 13 47  1  0  0  0  0
 14 48  1  0  0  0  0
 14 49  1  0  0  0  0
 15 50  1  0  0  0  0
 16 51  1  0  0  0  0
 18 52  1  0  0  0  0
 21 53  1  0  0  0  0
 21 54  1  0  0  0  0
 21 55  1  0  0  0  0
 22 56  1  0  0  0  0
 24 57  1  0  0  0  0
 24 58  1  0  0  0  0
 24 59  1  0  0  0  0
 26 60  1  0  0  0  0
 27 61  1  0  0  0  0
 27 62  1  0  0  0  0
 28 63  1  0  0  0  0
M  END
>  <energy>
305.06114491570469

$$$$
