O=C(NCCCl)C1C2C(Br)N3C(=O)C1(CCl)C2CC3CO
                    3D

 38 40  0  0  0  0  0  0  0  0999 V2000
   -2.5522   -2.4983   -1.1554 O   0  0  0  0  0  0  0  0  0  0  0  0
   -1.9855   -1.5575   -0.5902 C   0  0  0  0  0  0  0  0  0  0  0  0
   -2.6640   -0.7928    0.3365 N   0  0  0  0  0  0  0  0  0  0  0  0
   -4.0419   -1.0862    0.7206 C   0  0  0  0  0  0  0  0  0  0  0  0
   -4.3854   -0.4421    2.0591 C   0  0  0  0  0  0  0  0  0  0  0  0
   -4.3848    1.3380    1.9109 Cl  0  0  0  0  0  0  0  0  0  0  0  0
   -0.5014   -1.2114   -0.8594 C   0  0  0  0  0  0  0  0  0  0  0  0
   -0.0211    0.1727   -1.4244 C   0  0  0  0  0  0  0  0  0  0  0  0
    1.3514    0.0411   -2.1313 C   0  0  0  0  0  0  0  0  0  0  0  0
    1.6270    1.5024   -3.3678 Br  0  0  0  0  0  0  0  0  0  0  0  0
    2.3850   -0.1360   -1.0877 N   0  0  0  0  0  0  0  0  0  0  0  0
    2.0204   -1.2204   -0.2421 C   0  0  0  0  0  0  0  0  0  0  0  0
    2.7917   -2.1349    0.0200 O   0  0  0  0  0  0  0  0  0  0  0  0
    0.5248   -0.9290    0.3016 C   0  0  0  0  0  0  0  0  0  0  0  0
    0.2909   -1.4085    1.7146 C   0  0  0  0  0  0  0  0  0  0  0  0
    0.0094   -3.1589    1.7631 Cl  0  0  0  0  0  0  0  0  0  0  0  0
    0.1939    0.6227    0.0579 C   0  0  0  0  0  0  0  0  0  0  0  0
    1.3340    1.6323    0.2658 C   0  0  0  0  0  0  0  0  0  0  0  0
    2.6637    1.0212   -0.2148 C   0  0  0  0  0  0  0  0  0  0  0  0
    3.7403    1.9868   -0.7501 C   0  0  0  0  0  0  0  0  0  0  0  0
    3.2167    3.2556   -1.1214 O   0  0  0  0  0  0  0  0  0  0  0  0
   -2.3758    0.1616    0.4803 H   0  0  0  0  0  0  0  0  0  0  0  0
   -4.6972   -0.7350   -0.0855 H   0  0  0  0  0  0  0  0  0  0  0  0
   -4.1638   -2.1723    0.7990 H   0  0  0  0  0  0  0  0  0  0  0  0
   -3.6367   -0.7064    2.8121 H   0  0  0  0  0  0  0  0  0  0  0  0
   -5.3694   -0.7516    2.4206 H   0  0  0  0  0  0  0  0  0  0  0  0
   -0.1280   -2.0315   -1.4975 H   0  0  0  0  0  0  0  0  0  0  0  0
   -0.7859    0.7060   -1.9896 H   0  0  0  0  0  0  0  0  0  0  0  0
    1.3683   -0.8474   -2.7707 H   0  0  0  0  0  0  0  0  0  0  0  0
    1.1485   -1.1888    2.3584 H   0  0  0  0  0  0  0  0  0  0  0  0
   -0.5865   -0.9375    2.1617 H   0  0  0  0  0  0  0  0  0  0  0  0
   -0.7048    1.0085    0.5483 H   0  0  0  0  0  0  0  0  0  0  0  0
    1.0816    2.5504   -0.2729 H   0  0  0  0  0  0  0  0  0  0  0  0
    1.4147    1.9058    1.3264 H   0  0  0  0  0  0  0  0  0  0  0  0
    3.1376    0.5870    0.6805 H   0  0  0  0  0  0  0  0  0  0  0  0
    4.4954    2.1694    0.0275 H   0  0  0  0  0  0  0  0  0  0  0  0
    4.2639    1.5571   -1.6118 H   0  0  0  0  0  0  0  0  0  0  0  0
    3.9250    3.7281   -1.5922 H   0  0  0  0  0  0  0  0  0  0  0  0
  2  1  2  0  0  0  0
  3  2  1  0  0  0  0
  4  3  1  0  0  0  0
  5  4  1  0  0  0  0
  6  5  1  0  0  0  0
  7  2  1  0  0  0  0
  8  7  1  0  0  0  0
  9  8  1  0  0  0  0
 10  9  1  0  0  0  0
 11  9  1  0  0  0  0
 12 11  1  0  0  0  0
 13 12  2  0  0  0  0
 14 12  1  0  0  0  0
 14  7  1  0  0  0  0
 15 14  1  0  0  0  0
 16 15  1  0  0  0  0
 17 14  1  0  0  0  0
 17  8  1  0  0  0  0
 18 17  1  0  0  0  0
 19 18  1  0  0  0  0
 19 11  1  0  0  0  0
 20 19  1  0  0  0  0
 21 20  1  0  0  0  0
  3 22  1  0  0  0  0
  4 23  1  0  0  0  0
  4 24  1  0  0  0  0
  5 25  1  0  0  0  0
  5 26  1  0  0  0  0
  7 27  1  0  0  0  0
  8 28  1  0  0  0  0
  9 29  1  0  0  0  0
 15 30  1  0  0  0  0
 15 31  1  0  0  0  0
 17 32  1  0  0  0  0
 18 33  1  0  0  0  0
 18 34  1  0  0  0  0
 19 35  1  0  0  0  0
 20 36  1  0  0  0  0
 20 37  1  0  0  0  0
 21 38  1  0  0  0  0
M  END
>  <energy>
13.249564208658782

$$$$
