C1=CC2=C3C=CN=CC(=C1)C3=C2
                    3D

 19 21  0  0  0  0  0  0  0  0999 V2000
    1.9880    0.3580   -0.4812 C   0  0  0  0  0  0  0  0  0  0  0  0
    1.9964   -0.9091   -0.0032 C   0  0  0  0  0  0  0  0  0  0  0  0
    0.8647   -1.4244    0.8815 C   0  0  0  0  0  0  0  0  0  0  0  0
   -0.4778   -1.2801    0.6840 C   0  0  0  0  0  0  0  0  0  0  0  0
   -1.3872   -1.3480   -0.5038 C   0  0  0  0  0  0  0  0  0  0  0  0
   -2.1629   -0.3802   -1.0308 C   0  0  0  0  0  0  0  0  0  0  0  0
   -2.3728    0.9458   -0.7020 N   0  0  0  0  0  0  0  0  0  0  0  0
   -1.4872    1.6467   -0.0613 C   0  0  0  0  0  0  0  0  0  0  0  0
   -0.1958    1.1599    0.4715 C   0  0  0  0  0  0  0  0  0  0  0  0
    0.8586    1.3027   -0.3708 C   0  0  0  0  0  0  0  0  0  0  0  0
   -0.3093   -0.0301    1.3892 C   0  0  0  0  0  0  0  0  0  0  0  0
    0.6495   -0.6573    2.1134 C   0  0  0  0  0  0  0  0  0  0  0  0
    2.8282    0.7001   -1.0813 H   0  0  0  0  0  0  0  0  0  0  0  0
    2.8372   -1.5756   -0.1613 H   0  0  0  0  0  0  0  0  0  0  0  0
   -1.4000   -2.3248   -0.9810 H   0  0  0  0  0  0  0  0  0  0  0  0
   -2.7665   -0.6791   -1.8889 H   0  0  0  0  0  0  0  0  0  0  0  0
   -1.6989    2.7117    0.1321 H   0  0  0  0  0  0  0  0  0  0  0  0
    0.8116    2.0364   -1.1740 H   0  0  0  0  0  0  0  0  0  0  0  0
    1.4243   -0.2526    2.7678 H   0  0  0  0  0  0  0  0  0  0  0  0
  2  1  2  0  0  0  0
  3  2  1  0  0  0  0
  4  3  2  0  0  0  0
  5  4  1  0  0  0  0
  6  5  2  0  0  0  0
  7  6  1  0  0  0  0
  8  7  2  0  0  0  0
  9  8  1  0  0  0  0
 10  9  2  0  0  0  0
 10  1  1  0  0  0  0
 11  9  1  0  0  0  0
 11  4  1  0  0  0  0
 12 11  2  0  0  0  0
 12  3  1  0  0  0  0
  1 13  1  0  0  0  0
  2 14  1  0  0  0  0
  5 15  1  0  0  0  0
  6 16  1  0  0  0  0
  8 17  1  0  0  0  0
 10 18  1  0  0  0  0
 12 19  1  0  0  0  0
M  END
>  <energy>
136.8061879191834

$$$$
