NCCCCNC(=O)C12CC3CC4(CC5C6CC(=O)NC47C5C6C7C3(S(=O)(=O)O)C1)N2
                    3D

 61 67  0  0  0  0  0  0  0  0999 V2000
    3.0060   -2.6419    3.4878 N   0  0  0  0  0  0  0  0  0  0  0  0
    3.8171   -1.9383    2.5017 C   0  0  0  0  0  0  0  0  0  0  0  0
    3.5052   -2.4616    1.1017 C   0  0  0  0  0  0  0  0  0  0  0  0
    4.3792   -1.8323    0.0093 C   0  0  0  0  0  0  0  0  0  0  0  0
    4.2278   -0.3219   -0.1616 C   0  0  0  0  0  0  0  0  0  0  0  0
    2.8568    0.0585   -0.4118 N   0  0  0  0  0  0  0  0  0  0  0  0
    2.4785    1.3764   -0.5843 C   0  0  0  0  0  0  0  0  0  0  0  0
    3.2498    2.3258   -0.5429 O   0  0  0  0  0  0  0  0  0  0  0  0
    0.9475    1.5197   -0.7108 C   0  0  0  0  0  0  0  0  0  0  0  0
    0.4494    2.9104   -1.1107 C   0  0  0  0  0  0  0  0  0  0  0  0
   -1.0566    2.7529   -0.8118 C   0  0  0  0  0  0  0  0  0  0  0  0
   -1.5632    1.8565   -1.9323 C   0  0  0  0  0  0  0  0  0  0  0  0
   -1.0610    0.4101   -1.6905 C   0  0  0  0  0  0  0  0  0  0  0  0
   -1.8784   -0.4978   -2.6192 C   0  0  0  0  0  0  0  0  0  0  0  0
   -3.3449   -0.6444   -1.9704 C   0  0  0  0  0  0  0  0  0  0  0  0
   -4.3397   -1.0456   -0.8137 C   0  0  0  0  0  0  0  0  0  0  0  0
   -3.6857   -2.6177   -0.4310 C   0  0  0  0  0  0  0  0  0  0  0  0
   -1.9915   -2.7782   -0.2557 C   0  0  0  0  0  0  0  0  0  0  0  0
   -1.4982   -3.9096   -0.2285 O   0  0  0  0  0  0  0  0  0  0  0  0
   -1.0957   -1.6513   -0.0830 N   0  0  0  0  0  0  0  0  0  0  0  0
   -1.4690   -0.1707   -0.3516 C   0  0  0  0  0  0  0  0  0  0  0  0
   -2.8120   -0.4833   -0.5129 C   0  0  0  0  0  0  0  0  0  0  0  0
   -3.7035    0.5728   -0.1091 C   0  0  0  0  0  0  0  0  0  0  0  0
   -2.0865    0.8240    0.6678 C   0  0  0  0  0  0  0  0  0  0  0  0
   -1.1087    2.0330    0.5795 C   0  0  0  0  0  0  0  0  0  0  0  0
   -1.5184    3.2113    1.8802 S   0  0  0  0  0  0  0  0  0  0  0  0
   -0.6005    4.3273    1.8441 O   0  0  0  0  0  0  0  0  0  0  0  0
   -2.9493    3.3942    1.9348 O   0  0  0  0  0  0  0  0  0  0  0  0
   -1.0812    2.3324    3.1616 O   0  0  0  0  0  0  0  0  0  0  0  0
    0.3511    1.4800    0.7305 C   0  0  0  0  0  0  0  0  0  0  0  0
    0.4158    0.4580   -1.6783 N   0  0  0  0  0  0  0  0  0  0  0  0
    3.2892   -2.3609    4.4268 H   0  0  0  0  0  0  0  0  0  0  0  0
    2.0284   -2.3710    3.3905 H   0  0  0  0  0  0  0  0  0  0  0  0
    3.6152   -0.8660    2.5755 H   0  0  0  0  0  0  0  0  0  0  0  0
    4.8750   -2.0972    2.7326 H   0  0  0  0  0  0  0  0  0  0  0  0
    3.6697   -3.5474    1.0760 H   0  0  0  0  0  0  0  0  0  0  0  0
    2.4441   -2.3098    0.8674 H   0  0  0  0  0  0  0  0  0  0  0  0
    4.1277   -2.3159   -0.9429 H   0  0  0  0  0  0  0  0  0  0  0  0
    5.4324   -2.0611    0.2089 H   0  0  0  0  0  0  0  0  0  0  0  0
    4.8330    0.0201   -1.0080 H   0  0  0  0  0  0  0  0  0  0  0  0
    4.5777    0.2207    0.7246 H   0  0  0  0  0  0  0  0  0  0  0  0
    2.2291   -0.6063   -0.8562 H   0  0  0  0  0  0  0  0  0  0  0  0
    0.8923    3.7046   -0.4966 H   0  0  0  0  0  0  0  0  0  0  0  0
    0.6670    3.1605   -2.1555 H   0  0  0  0  0  0  0  0  0  0  0  0
   -1.5693    3.7206   -0.8289 H   0  0  0  0  0  0  0  0  0  0  0  0
   -2.6453    1.9417   -2.0195 H   0  0  0  0  0  0  0  0  0  0  0  0
   -1.2091    2.2161   -2.9100 H   0  0  0  0  0  0  0  0  0  0  0  0
   -1.9676   -0.0890   -3.6324 H   0  0  0  0  0  0  0  0  0  0  0  0
   -1.4119   -1.4889   -2.7170 H   0  0  0  0  0  0  0  0  0  0  0  0
   -3.5447   -1.5254   -2.6028 H   0  0  0  0  0  0  0  0  0  0  0  0
   -5.4051   -1.0806   -1.0588 H   0  0  0  0  0  0  0  0  0  0  0  0
   -3.9956   -3.2908   -1.2369 H   0  0  0  0  0  0  0  0  0  0  0  0
   -4.1487   -2.9308    0.5109 H   0  0  0  0  0  0  0  0  0  0  0  0
   -0.1142   -1.9166   -0.0703 H   0  0  0  0  0  0  0  0  0  0  0  0
   -2.9972   -1.0326    0.4871 H   0  0  0  0  0  0  0  0  0  0  0  0
   -3.9998    1.4075   -0.7416 H   0  0  0  0  0  0  0  0  0  0  0  0
   -2.1001    0.4342    1.7006 H   0  0  0  0  0  0  0  0  0  0  0  0
   -0.5157    2.8951    3.7357 H   0  0  0  0  0  0  0  0  0  0  0  0
    0.9498    2.1274    1.3874 H   0  0  0  0  0  0  0  0  0  0  0  0
    0.4098    0.4809    1.1796 H   0  0  0  0  0  0  0  0  0  0  0  0
    0.7439    0.7123   -2.6150 H   0  0  0  0  0  0  0  0  0  0  0  0
  2  1  1  0  0  0  0
  3  2  1  0  0  0  0
  4  3  1  0  0  0  0
  5  4  1  0  0  0  0
  6  5  1  0  0  0  0
  7  6  1  0  0  0  0
  8  7  2  0  0  0  0
  9  7  1  0  0  0  0
 10  9  1  0  0  0  0
 11 10  1  0  0  0  0
 12 11  1  0  0  0  0
 13 12  1  0  0  0  0
 14 13  1  0  0  0  0
 15 14  1  0  0  0  0
 16 15  1  0  0  0  0
 17 16  1  0  0  0  0
 18 17  1  0  0  0  0
 19 18  2  0  0  0  0
 20 18  1  0  0  0  0
 21 20  1  0  0  0  0
 21 13  1  0  0  0  0
 22 21  1  0  0  0  0
 22 15  1  0  0  0  0
 23 22  1  0  0  0  0
 23 16  1  0  0  0  0
 24 23  1  0  0  0  0
 24 21  1  0  0  0  0
 25 24  1  0  0  0  0
 25 11  1  0  0  0  0
 26 25  1  0  0  0  0
 27 26  2  0  0  0  0
 28 26  2  0  0  0  0
 29 26  1  0  0  0  0
 30 25  1  0  0  0  0
 30  9  1  0  0  0  0
 31 13  1  0  0  0  0
 31  9  1  0  0  0  0
  1 32  1  0  0  0  0
  1 33  1  0  0  0  0
  2 34  1  0  0  0  0
  2 35  1  0  0  0  0
  3 36  1  0  0  0  0
  3 37  1  0  0  0  0
  4 38  1  0  0  0  0
  4 39  1  0  0  0  0
  5 40  1  0  0  0  0
  5 41  1  0  0  0  0
  6 42  1  0  0  0  0
 10 43  1  0  0  0  0
 10 44  1  0  0  0  0
 11 45  1  0  0  0  0
 12 46  1  0  0  0  0
 12 47  1  0  0  0  0
 14 48  1  0  0  0  0
 14 49  1  0  0  0  0
 15 50  1  0  0  0  0
 16 51  1  0  0  0  0
 17 52  1  0  0  0  0
 17 53  1  0  0  0  0
 20 54  1  0  0  0  0
 22 55  1  0  0  0  0
 23 56  1  0  0  0  0
 24 57  1  0  0  0  0
 29 58  1  0  0  0  0
 30 59  1  0  0  0  0
 30 60  1  0  0  0  0
 31 61  1  0  0  0  0
M  END
>  <energy>
295.05337584351406

$$$$
