CCOC(=O)c1sc(NC2NC34CC5CC3(C)CC24C5)cc1C
                    3D

 47 51  0  0  0  0  0  0  0  0999 V2000
    5.1386    2.4621   -0.3034 C   0  0  0  0  0  0  0  0  0  0  0  0
    5.4559    0.9780   -0.3184 C   0  0  0  0  0  0  0  0  0  0  0  0
    4.2894    0.2969    0.1509 O   0  0  0  0  0  0  0  0  0  0  0  0
    4.3116   -1.0618    0.0436 C   0  0  0  0  0  0  0  0  0  0  0  0
    5.2788   -1.7000   -0.3498 O   0  0  0  0  0  0  0  0  0  0  0  0
    2.9983   -1.6074    0.3508 C   0  0  0  0  0  0  0  0  0  0  0  0
    1.8931   -0.7474    1.3412 S   0  0  0  0  0  0  0  0  0  0  0  0
    0.6024   -1.7866    0.9364 C   0  0  0  0  0  0  0  0  0  0  0  0
   -0.6835   -1.4920    1.2851 N   0  0  0  0  0  0  0  0  0  0  0  0
   -1.6516   -1.2718    0.2472 C   0  0  0  0  0  0  0  0  0  0  0  0
   -3.0168   -1.1917    0.7726 N   0  0  0  0  0  0  0  0  0  0  0  0
   -3.0532    0.2431    0.6203 C   0  0  0  0  0  0  0  0  0  0  0  0
   -2.8890    1.1881    1.7791 C   0  0  0  0  0  0  0  0  0  0  0  0
   -2.2846    2.2762    0.8988 C   0  0  0  0  0  0  0  0  0  0  0  0
   -3.3829    2.4297   -0.1889 C   0  0  0  0  0  0  0  0  0  0  0  0
   -3.6917    0.9485   -0.5893 C   0  0  0  0  0  0  0  0  0  0  0  0
   -5.1213    0.7005   -0.9997 C   0  0  0  0  0  0  0  0  0  0  0  0
   -2.5870    0.3678   -1.4993 C   0  0  0  0  0  0  0  0  0  0  0  0
   -1.7309    0.2158   -0.2111 C   0  0  0  0  0  0  0  0  0  0  0  0
   -1.0825    1.5144    0.2934 C   0  0  0  0  0  0  0  0  0  0  0  0
    1.0605   -2.8790    0.2336 C   0  0  0  0  0  0  0  0  0  0  0  0
    2.4621   -2.8158   -0.0701 C   0  0  0  0  0  0  0  0  0  0  0  0
    3.2006   -3.8654   -0.8365 C   0  0  0  0  0  0  0  0  0  0  0  0
    4.8572    2.7871    0.7042 H   0  0  0  0  0  0  0  0  0  0  0  0
    4.2819    2.6783   -0.9522 H   0  0  0  0  0  0  0  0  0  0  0  0
    5.9929    3.0566   -0.6362 H   0  0  0  0  0  0  0  0  0  0  0  0
    5.6947    0.6610   -1.3399 H   0  0  0  0  0  0  0  0  0  0  0  0
    6.3006    0.7618    0.3442 H   0  0  0  0  0  0  0  0  0  0  0  0
   -0.7406   -0.7514    1.9800 H   0  0  0  0  0  0  0  0  0  0  0  0
   -1.5624   -2.0060   -0.5623 H   0  0  0  0  0  0  0  0  0  0  0  0
   -3.0853   -1.5363    1.7256 H   0  0  0  0  0  0  0  0  0  0  0  0
   -3.8450    1.4775    2.2253 H   0  0  0  0  0  0  0  0  0  0  0  0
   -2.2096    0.8362    2.5613 H   0  0  0  0  0  0  0  0  0  0  0  0
   -2.0193    3.2025    1.4109 H   0  0  0  0  0  0  0  0  0  0  0  0
   -3.0420    3.0223   -1.0451 H   0  0  0  0  0  0  0  0  0  0  0  0
   -4.2701    2.9116    0.2435 H   0  0  0  0  0  0  0  0  0  0  0  0
   -5.3017   -0.3588   -1.2121 H   0  0  0  0  0  0  0  0  0  0  0  0
   -5.3632    1.2660   -1.9048 H   0  0  0  0  0  0  0  0  0  0  0  0
   -5.8193    1.0095   -0.2142 H   0  0  0  0  0  0  0  0  0  0  0  0
   -2.8449   -0.5674   -2.0073 H   0  0  0  0  0  0  0  0  0  0  0  0
   -2.1884    1.0540   -2.2546 H   0  0  0  0  0  0  0  0  0  0  0  0
   -0.3263    1.3245    1.0602 H   0  0  0  0  0  0  0  0  0  0  0  0
   -0.6118    2.0751   -0.5202 H   0  0  0  0  0  0  0  0  0  0  0  0
    0.4124   -3.6853   -0.0845 H   0  0  0  0  0  0  0  0  0  0  0  0
    2.5755   -4.7506   -0.9861 H   0  0  0  0  0  0  0  0  0  0  0  0
    4.1026   -4.1852   -0.3008 H   0  0  0  0  0  0  0  0  0  0  0  0
    3.4960   -3.4849   -1.8213 H   0  0  0  0  0  0  0  0  0  0  0  0
  2  1  1  0  0  0  0
  3  2  1  0  0  0  0
  4  3  1  0  0  0  0
  5  4  2  0  0  0  0
  6  4  1  0  0  0  0
  7  6  1  0  0  0  0
  8  7  1  0  0  0  0
  9  8  1  0  0  0  0
 10  9  1  0  0  0  0
 11 10  1  0  0  0  0
 12 11  1  0  0  0  0
 13 12  1  0  0  0  0
 14 13  1  0  0  0  0
 15 14  1  0  0  0  0
 16 15  1  0  0  0  0
 16 12  1  0  0  0  0
 17 16  1  0  0  0  0
 18 16  1  0  0  0  0
 19 18  1  0  0  0  0
 19 10  1  0  0  0  0
 19 12  1  0  0  0  0
 20 19  1  0  0  0  0
 20 14  1  0  0  0  0
 21  8  2  0  0  0  0
 22 21  1  0  0  0  0
 22  6  2  0  0  0  0
 23 22  1  0  0  0  0
  1 24  1  0  0  0  0
  1 25  1  0  0  0  0
  1 26  1  0  0  0  0
  2 27  1  0  0  0  0
  2 28  1  0  0  0  0
  9 29  1  0  0  0  0
 10 30  1  0  0  0  0
 11 31  1  0  0  0  0
 13 32  1  0  0  0  0
 13 33  1  0  0  0  0
 14 34  1  0  0  0  0
 15 35  1  0  0  0  0
 15 36  1  0  0  0  0
 17 37  1  0  0  0  0
 17 38  1  0  0  0  0
 17 39  1  0  0  0  0
 18 40  1  0  0  0  0
 18 41  1  0  0  0  0
 20 42  1  0  0  0  0
 20 43  1  0  0  0  0
 21 44  1  0  0  0  0
 23 45  1  0  0  0  0
 23 46  1  0  0  0  0
 23 47  1  0  0  0  0
M  END
>  <energy>
26.466328902642999

$$$$
