CCCCCCCCCCOC1C(O)(C(=O)O)C(=O)CC2(OC(C)=O)C(=O)C3(C(=O)O)C1(C)C1C(C)(C)CCCC123
                    3D

 87 90  0  0  0  0  0  0  0  0999 V2000
   -4.8338    3.1368    0.3969 C   0  0  0  0  0  0  0  0  0  0  0  0
   -5.3370    1.8853   -0.3090 C   0  0  0  0  0  0  0  0  0  0  0  0
   -5.2907    0.6631    0.6101 C   0  0  0  0  0  0  0  0  0  0  0  0
   -6.0201   -0.5531    0.0335 C   0  0  0  0  0  0  0  0  0  0  0  0
   -5.4749   -1.1094   -1.2853 C   0  0  0  0  0  0  0  0  0  0  0  0
   -4.0339   -1.6137   -1.1881 C   0  0  0  0  0  0  0  0  0  0  0  0
   -3.6048   -2.3062   -2.4804 C   0  0  0  0  0  0  0  0  0  0  0  0
   -2.0957   -2.5580   -2.5836 C   0  0  0  0  0  0  0  0  0  0  0  0
   -1.5460   -3.6102   -1.6137 C   0  0  0  0  0  0  0  0  0  0  0  0
   -1.0486   -3.0629   -0.2736 C   0  0  0  0  0  0  0  0  0  0  0  0
   -0.0862   -2.0312   -0.4977 O   0  0  0  0  0  0  0  0  0  0  0  0
    0.9138   -1.8572    0.5284 C   0  0  0  0  0  0  0  0  0  0  0  0
    2.2362   -2.4784   -0.0111 C   0  0  0  0  0  0  0  0  0  0  0  0
    1.9047   -3.8164   -0.5381 O   0  0  0  0  0  0  0  0  0  0  0  0
    3.1952   -2.9191    1.0863 C   0  0  0  0  0  0  0  0  0  0  0  0
    2.8613   -3.4368    2.1436 O   0  0  0  0  0  0  0  0  0  0  0  0
    4.5012   -2.7960    0.7912 O   0  0  0  0  0  0  0  0  0  0  0  0
    2.9219   -1.7290   -1.1565 C   0  0  0  0  0  0  0  0  0  0  0  0
    3.0350   -2.2023   -2.2902 O   0  0  0  0  0  0  0  0  0  0  0  0
    3.5243   -0.3806   -0.8626 C   0  0  0  0  0  0  0  0  0  0  0  0
    2.6019    0.8095   -1.0567 C   0  0  0  0  0  0  0  0  0  0  0  0
    3.2503    1.8732   -1.8216 O   0  0  0  0  0  0  0  0  0  0  0  0
    3.3884    1.6844   -3.1668 C   0  0  0  0  0  0  0  0  0  0  0  0
    3.4445    3.0082   -3.8691 C   0  0  0  0  0  0  0  0  0  0  0  0
    3.4318    0.6019   -3.7214 O   0  0  0  0  0  0  0  0  0  0  0  0
    1.1468    0.4976   -1.5702 C   0  0  0  0  0  0  0  0  0  0  0  0
    0.6546    0.2517   -2.6477 O   0  0  0  0  0  0  0  0  0  0  0  0
    0.5349    0.7099   -0.1889 C   0  0  0  0  0  0  0  0  0  0  0  0
   -0.7629    1.5138   -0.3665 C   0  0  0  0  0  0  0  0  0  0  0  0
   -1.9186    1.1365   -0.2037 O   0  0  0  0  0  0  0  0  0  0  0  0
   -0.5677    2.8040   -0.7313 O   0  0  0  0  0  0  0  0  0  0  0  0
    0.7529   -0.3679    0.9826 C   0  0  0  0  0  0  0  0  0  0  0  0
   -0.4444   -0.3761    1.9986 C   0  0  0  0  0  0  0  0  0  0  0  0
    1.7633    0.7018    1.5777 C   0  0  0  0  0  0  0  0  0  0  0  0
    2.8800    0.8920    2.6414 C   0  0  0  0  0  0  0  0  0  0  0  0
    2.3288    1.6171    3.9043 C   0  0  0  0  0  0  0  0  0  0  0  0
    3.4320   -0.4409    3.1235 C   0  0  0  0  0  0  0  0  0  0  0  0
    4.0008    1.7702    2.0332 C   0  0  0  0  0  0  0  0  0  0  0  0
    3.5154    3.0184    1.2638 C   0  0  0  0  0  0  0  0  0  0  0  0
    2.1561    2.8811    0.5473 C   0  0  0  0  0  0  0  0  0  0  0  0
    1.8801    1.4167    0.2250 C   0  0  0  0  0  0  0  0  0  0  0  0
   -4.8348    3.9856   -0.2941 H   0  0  0  0  0  0  0  0  0  0  0  0
   -3.8149    3.0018    0.7706 H   0  0  0  0  0  0  0  0  0  0  0  0
   -5.4790    3.3916    1.2444 H   0  0  0  0  0  0  0  0  0  0  0  0
   -6.3659    2.0601   -0.6503 H   0  0  0  0  0  0  0  0  0  0  0  0
   -4.7249    1.7105   -1.2022 H   0  0  0  0  0  0  0  0  0  0  0  0
   -4.2514    0.4050    0.8417 H   0  0  0  0  0  0  0  0  0  0  0  0
   -5.7618    0.9133    1.5681 H   0  0  0  0  0  0  0  0  0  0  0  0
   -7.0747   -0.2922   -0.1171 H   0  0  0  0  0  0  0  0  0  0  0  0
   -6.0084   -1.3515    0.7845 H   0  0  0  0  0  0  0  0  0  0  0  0
   -6.1200   -1.9416   -1.5927 H   0  0  0  0  0  0  0  0  0  0  0  0
   -5.5514   -0.3542   -2.0740 H   0  0  0  0  0  0  0  0  0  0  0  0
   -3.9547   -2.3116   -0.3491 H   0  0  0  0  0  0  0  0  0  0  0  0
   -3.3657   -0.7710   -0.9921 H   0  0  0  0  0  0  0  0  0  0  0  0
   -3.8944   -1.6788   -3.3326 H   0  0  0  0  0  0  0  0  0  0  0  0
   -4.1520   -3.2520   -2.5946 H   0  0  0  0  0  0  0  0  0  0  0  0
   -1.5534   -1.6088   -2.4938 H   0  0  0  0  0  0  0  0  0  0  0  0
   -1.9060   -2.9128   -3.6049 H   0  0  0  0  0  0  0  0  0  0  0  0
   -2.2899   -4.3955   -1.4415 H   0  0  0  0  0  0  0  0  0  0  0  0
   -0.6937   -4.0912   -2.1127 H   0  0  0  0  0  0  0  0  0  0  0  0
   -1.8766   -2.6501    0.3038 H   0  0  0  0  0  0  0  0  0  0  0  0
   -0.6271   -3.8910    0.3072 H   0  0  0  0  0  0  0  0  0  0  0  0
    0.6308   -2.4749    1.3934 H   0  0  0  0  0  0  0  0  0  0  0  0
    1.5595   -4.3561    0.1945 H   0  0  0  0  0  0  0  0  0  0  0  0
    4.9764   -3.2802    1.5018 H   0  0  0  0  0  0  0  0  0  0  0  0
    3.9305   -0.3968    0.1445 H   0  0  0  0  0  0  0  0  0  0  0  0
    4.4187   -0.2966   -1.4934 H   0  0  0  0  0  0  0  0  0  0  0  0
    4.2017    3.6463   -3.4051 H   0  0  0  0  0  0  0  0  0  0  0  0
    3.7130    2.8583   -4.9189 H   0  0  0  0  0  0  0  0  0  0  0  0
    2.4611    3.4875   -3.8241 H   0  0  0  0  0  0  0  0  0  0  0  0
   -1.4826    3.1343   -0.8689 H   0  0  0  0  0  0  0  0  0  0  0  0
   -1.3011   -0.9278    1.6039 H   0  0  0  0  0  0  0  0  0  0  0  0
   -0.1374   -0.8514    2.9380 H   0  0  0  0  0  0  0  0  0  0  0  0
   -0.8125    0.6275    2.2478 H   0  0  0  0  0  0  0  0  0  0  0  0
    1.0504    1.3681    2.1091 H   0  0  0  0  0  0  0  0  0  0  0  0
    1.9455    2.6161    3.6698 H   0  0  0  0  0  0  0  0  0  0  0  0
    1.5058    1.0475    4.3510 H   0  0  0  0  0  0  0  0  0  0  0  0
    3.1076    1.7396    4.6661 H   0  0  0  0  0  0  0  0  0  0  0  0
    4.0312   -0.9079    2.3480 H   0  0  0  0  0  0  0  0  0  0  0  0
    4.0988   -0.3097    3.9827 H   0  0  0  0  0  0  0  0  0  0  0  0
    2.6248   -1.1172    3.4243 H   0  0  0  0  0  0  0  0  0  0  0  0
    4.7063    2.0804    2.8170 H   0  0  0  0  0  0  0  0  0  0  0  0
    4.6064    1.1707    1.3455 H   0  0  0  0  0  0  0  0  0  0  0  0
    3.4643    3.8671    1.9582 H   0  0  0  0  0  0  0  0  0  0  0  0
    4.2914    3.2751    0.5293 H   0  0  0  0  0  0  0  0  0  0  0  0
    1.3782    3.2895    1.2065 H   0  0  0  0  0  0  0  0  0  0  0  0
    2.1407    3.5169   -0.3434 H   0  0  0  0  0  0  0  0  0  0  0  0
  2  1  1  0  0  0  0
  3  2  1  0  0  0  0
  4  3  1  0  0  0  0
  5  4  1  0  0  0  0
  6  5  1  0  0  0  0
  7  6  1  0  0  0  0
  8  7  1  0  0  0  0
  9  8  1  0  0  0  0
 10  9  1  0  0  0  0
 11 10  1  0  0  0  0
 12 11  1  0  0  0  0
 13 12  1  0  0  0  0
 14 13  1  0  0  0  0
 15 13  1  0  0  0  0
 16 15  2  0  0  0  0
 17 15  1  0  0  0  0
 18 13  1  0  0  0  0
 19 18  2  0  0  0  0
 20 18  1  0  0  0  0
 21 20  1  0  0  0  0
 22 21  1  0  0  0  0
 23 22  1  0  0  0  0
 24 23  1  0  0  0  0
 25 23  2  0  0  0  0
 26 21  1  0  0  0  0
 27 26  2  0  0  0  0
 28 26  1  0  0  0  0
 29 28  1  0  0  0  0
 30 29  2  0  0  0  0
 31 29  1  0  0  0  0
 32 28  1  0  0  0  0
 32 12  1  0  0  0  0
 33 32  1  0  0  0  0
 34 32  1  0  0  0  0
 35 34  1  0  0  0  0
 36 35  1  0  0  0  0
 37 35  1  0  0  0  0
 38 35  1  0  0  0  0
 39 38  1  0  0  0  0
 40 39  1  0  0  0  0
 41 40  1  0  0  0  0
 41 34  1  0  0  0  0
 41 21  1  0  0  0  0
 41 28  1  0  0  0  0
  1 42  1  0  0  0  0
  1 43  1  0  0  0  0
  1 44  1  0  0  0  0
  2 45  1  0  0  0  0
  2 46  1  0  0  0  0
  3 47  1  0  0  0  0
  3 48  1  0  0  0  0
  4 49  1  0  0  0  0
  4 50  1  0  0  0  0
  5 51  1  0  0  0  0
  5 52  1  0  0  0  0
  6 53  1  0  0  0  0
  6 54  1  0  0  0  0
  7 55  1  0  0  0  0
  7 56  1  0  0  0  0
  8 57  1  0  0  0  0
  8 58  1  0  0  0  0
  9 59  1  0  0  0  0
  9 60  1  0  0  0  0
 10 61  1  0  0  0  0
 10 62  1  0  0  0  0
 12 63  1  0  0  0  0
 14 64  1  0  0  0  0
 17 65  1  0  0  0  0
 20 66  1  0  0  0  0
 20 67  1  0  0  0  0
 24 68  1  0  0  0  0
 24 69  1  0  0  0  0
 24 70  1  0  0  0  0
 31 71  1  0  0  0  0
 33 72  1  0  0  0  0
 33 73  1  0  0  0  0
 33 74  1  0  0  0  0
 34 75  1  0  0  0  0
 36 76  1  0  0  0  0
 36 77  1  0  0  0  0
 36 78  1  0  0  0  0
 37 79  1  0  0  0  0
 37 80  1  0  0  0  0
 37 81  1  0  0  0  0
 38 82  1  0  0  0  0
 38 83  1  0  0  0  0
 39 84  1  0  0  0  0
 39 85  1  0  0  0  0
 40 86  1  0  0  0  0
 40 87  1  0  0  0  0
M  END
>  <energy>
111.75453289205075

$$$$
