CC(O)C(C=CC1CCC23CCC(O)C24OC3CC4C1)C1CC1
                    3D

 53 57  0  0  0  0  0  0  0  0999 V2000
    3.2821   -1.8192    2.0916 C   0  0  0  0  0  0  0  0  0  0  0  0
    3.7061   -0.5722    1.3240 C   0  0  0  0  0  0  0  0  0  0  0  0
    3.6228    0.5278    2.2409 O   0  0  0  0  0  0  0  0  0  0  0  0
    2.8729   -0.2418    0.0410 C   0  0  0  0  0  0  0  0  0  0  0  0
    2.4145   -1.4730   -0.7111 C   0  0  0  0  0  0  0  0  0  0  0  0
    1.1905   -1.9965   -0.9211 C   0  0  0  0  0  0  0  0  0  0  0  0
   -0.2284   -1.6736   -0.4667 C   0  0  0  0  0  0  0  0  0  0  0  0
   -1.0739   -1.2786   -1.6915 C   0  0  0  0  0  0  0  0  0  0  0  0
   -2.5401   -0.9868   -1.4134 C   0  0  0  0  0  0  0  0  0  0  0  0
   -2.8724    0.3602   -0.7709 C   0  0  0  0  0  0  0  0  0  0  0  0
   -4.4166    0.4929   -0.6311 C   0  0  0  0  0  0  0  0  0  0  0  0
   -4.7579    0.3697    0.8677 C   0  0  0  0  0  0  0  0  0  0  0  0
   -3.4420    0.1828    1.6315 C   0  0  0  0  0  0  0  0  0  0  0  0
   -3.4378    0.9555    2.8228 O   0  0  0  0  0  0  0  0  0  0  0  0
   -2.4144    0.6941    0.6656 C   0  0  0  0  0  0  0  0  0  0  0  0
   -2.6556    2.1530    0.3004 O   0  0  0  0  0  0  0  0  0  0  0  0
   -1.9614    1.6699   -0.9408 C   0  0  0  0  0  0  0  0  0  0  0  0
   -0.5432    1.4418   -0.4148 C   0  0  0  0  0  0  0  0  0  0  0  0
   -0.9044    0.5805    0.8082 C   0  0  0  0  0  0  0  0  0  0  0  0
   -0.4068   -0.8633    0.8332 C   0  0  0  0  0  0  0  0  0  0  0  0
    3.7438    0.6331   -0.8669 C   0  0  0  0  0  0  0  0  0  0  0  0
    3.1517    1.3871   -2.0315 C   0  0  0  0  0  0  0  0  0  0  0  0
    3.6437    2.1395   -0.8273 C   0  0  0  0  0  0  0  0  0  0  0  0
    2.2456   -1.7536    2.4308 H   0  0  0  0  0  0  0  0  0  0  0  0
    3.4084   -2.7274    1.4949 H   0  0  0  0  0  0  0  0  0  0  0  0
    3.8881   -1.9290    2.9982 H   0  0  0  0  0  0  0  0  0  0  0  0
    4.7669   -0.6891    1.0714 H   0  0  0  0  0  0  0  0  0  0  0  0
    3.9464    1.3197    1.7773 H   0  0  0  0  0  0  0  0  0  0  0  0
    2.0094    0.3606    0.3369 H   0  0  0  0  0  0  0  0  0  0  0  0
    3.2414   -2.0122   -1.1819 H   0  0  0  0  0  0  0  0  0  0  0  0
    1.2032   -2.8923   -1.5494 H   0  0  0  0  0  0  0  0  0  0  0  0
   -0.6046   -2.6705   -0.1821 H   0  0  0  0  0  0  0  0  0  0  0  0
   -1.0518   -2.1340   -2.3842 H   0  0  0  0  0  0  0  0  0  0  0  0
   -0.6251   -0.4662   -2.2703 H   0  0  0  0  0  0  0  0  0  0  0  0
   -2.9642   -1.8032   -0.8148 H   0  0  0  0  0  0  0  0  0  0  0  0
   -3.0547   -1.0317   -2.3837 H   0  0  0  0  0  0  0  0  0  0  0  0
   -4.7581    1.4610   -1.0184 H   0  0  0  0  0  0  0  0  0  0  0  0
   -4.9561   -0.2719   -1.2020 H   0  0  0  0  0  0  0  0  0  0  0  0
   -5.4297   -0.4785    1.0431 H   0  0  0  0  0  0  0  0  0  0  0  0
   -5.2968    1.2645    1.2024 H   0  0  0  0  0  0  0  0  0  0  0  0
   -3.2921   -0.8705    1.8857 H   0  0  0  0  0  0  0  0  0  0  0  0
   -3.4166    1.8910    2.5399 H   0  0  0  0  0  0  0  0  0  0  0  0
   -2.1430    2.3124   -1.8021 H   0  0  0  0  0  0  0  0  0  0  0  0
   -0.0948    2.3916   -0.1021 H   0  0  0  0  0  0  0  0  0  0  0  0
    0.1373    0.9845   -1.1252 H   0  0  0  0  0  0  0  0  0  0  0  0
   -0.5804    1.0803    1.7299 H   0  0  0  0  0  0  0  0  0  0  0  0
   -1.0894   -1.4354    1.4782 H   0  0  0  0  0  0  0  0  0  0  0  0
    0.5310   -0.8797    1.3932 H   0  0  0  0  0  0  0  0  0  0  0  0
    4.7250    0.1980   -1.0399 H   0  0  0  0  0  0  0  0  0  0  0  0
    2.0853    1.3329   -2.2049 H   0  0  0  0  0  0  0  0  0  0  0  0
    3.7369    1.4471   -2.9437 H   0  0  0  0  0  0  0  0  0  0  0  0
    2.9012    2.6049   -0.1885 H   0  0  0  0  0  0  0  0  0  0  0  0
    4.5581    2.7139   -0.9289 H   0  0  0  0  0  0  0  0  0  0  0  0
  2  1  1  0  0  0  0
  3  2  1  0  0  0  0
  4  2  1  0  0  0  0
  5  4  1  0  0  0  0
  6  5  2  0  0  0  0
  7  6  1  0  0  0  0
  8  7  1  0  0  0  0
  9  8  1  0  0  0  0
 10  9  1  0  0  0  0
 11 10  1  0  0  0  0
 12 11  1  0  0  0  0
 13 12  1  0  0  0  0
 14 13  1  0  0  0  0
 15 13  1  0  0  0  0
 15 10  1  0  0  0  0
 16 15  1  0  0  0  0
 17 16  1  0  0  0  0
 17 10  1  0  0  0  0
 18 17  1  0  0  0  0
 19 18  1  0  0  0  0
 19 15  1  0  0  0  0
 20 19  1  0  0  0  0
 20  7  1  0  0  0  0
 21  4  1  0  0  0  0
 22 21  1  0  0  0  0
 23 22  1  0  0  0  0
 23 21  1  0  0  0  0
  1 24  1  0  0  0  0
  1 25  1  0  0  0  0
  1 26  1  0  0  0  0
  2 27  1  0  0  0  0
  3 28  1  0  0  0  0
  4 29  1  0  0  0  0
  5 30  1  0  0  0  0
  6 31  1  0  0  0  0
  7 32  1  0  0  0  0
  8 33  1  0  0  0  0
  8 34  1  0  0  0  0
  9 35  1  0  0  0  0
  9 36  1  0  0  0  0
 11 37  1  0  0  0  0
 11 38  1  0  0  0  0
 12 39  1  0  0  0  0
 12 40  1  0  0  0  0
 13 41  1  0  0  0  0
 14 42  1  0  0  0  0
 17 43  1  0  0  0  0
 18 44  1  0  0  0  0
 18 45  1  0  0  0  0
 19 46  1  0  0  0  0
 20 47  1  0  0  0  0
 20 48  1  0  0  0  0
 21 49  1  0  0  0  0
 22 50  1  0  0  0  0
 22 51  1  0  0  0  0
 23 52  1  0  0  0  0
 23 53  1  0  0  0  0
M  END
>  <energy>
146.54971776478342

$$$$
