NC(=O)C12CC3(C(=O)N=C(N)N)CC=CC(C31)C2(F)C#Cc1ccc(F)cc1
                    3D

 46 49  0  0  0  0  0  0  0  0999 V2000
   -0.3567    1.4405    1.5059 N   0  0  0  0  0  0  0  0  0  0  0  0
   -0.2427    0.1165    1.8455 C   0  0  0  0  0  0  0  0  0  0  0  0
    0.0330   -0.1546    3.0158 O   0  0  0  0  0  0  0  0  0  0  0  0
   -0.4986   -0.9278    0.7393 C   0  0  0  0  0  0  0  0  0  0  0  0
   -1.5904   -1.9989    1.0168 C   0  0  0  0  0  0  0  0  0  0  0  0
   -2.4108   -1.4623   -0.1960 C   0  0  0  0  0  0  0  0  0  0  0  0
   -3.7034   -0.6071    0.2005 C   0  0  0  0  0  0  0  0  0  0  0  0
   -4.8658   -0.9480   -0.0273 O   0  0  0  0  0  0  0  0  0  0  0  0
   -3.3892    0.5891    0.8026 N   0  0  0  0  0  0  0  0  0  0  0  0
   -3.9834    1.6438    0.3637 C   0  0  0  0  0  0  0  0  0  0  0  0
   -3.7625    2.8458    0.9416 N   0  0  0  0  0  0  0  0  0  0  0  0
   -4.8512    1.7733   -0.6648 N   0  0  0  0  0  0  0  0  0  0  0  0
   -2.8235   -2.5450   -1.2103 C   0  0  0  0  0  0  0  0  0  0  0  0
   -1.6753   -3.1180   -1.9828 C   0  0  0  0  0  0  0  0  0  0  0  0
   -0.4446   -2.6063   -2.0654 C   0  0  0  0  0  0  0  0  0  0  0  0
   -0.0738   -1.3577   -1.3599 C   0  0  0  0  0  0  0  0  0  0  0  0
   -1.1794   -0.6139   -0.6038 C   0  0  0  0  0  0  0  0  0  0  0  0
    0.7131   -1.5381   -0.0190 C   0  0  0  0  0  0  0  0  0  0  0  0
    1.0358   -2.8142    0.3075 F   0  0  0  0  0  0  0  0  0  0  0  0
    1.9345   -0.7510    0.0272 C   0  0  0  0  0  0  0  0  0  0  0  0
    2.9382   -0.0943    0.0584 C   0  0  0  0  0  0  0  0  0  0  0  0
    4.1326    0.6865    0.0977 C   0  0  0  0  0  0  0  0  0  0  0  0
    4.0651    2.0767   -0.0435 C   0  0  0  0  0  0  0  0  0  0  0  0
    5.2341    2.8372   -0.0004 C   0  0  0  0  0  0  0  0  0  0  0  0
    6.4567    2.1982    0.1839 C   0  0  0  0  0  0  0  0  0  0  0  0
    7.5768    2.9287    0.2273 F   0  0  0  0  0  0  0  0  0  0  0  0
    6.5373    0.8164    0.3265 C   0  0  0  0  0  0  0  0  0  0  0  0
    5.3677    0.0569    0.2832 C   0  0  0  0  0  0  0  0  0  0  0  0
   -0.8359    1.7395    0.6688 H   0  0  0  0  0  0  0  0  0  0  0  0
   -0.3148    2.0828    2.2862 H   0  0  0  0  0  0  0  0  0  0  0  0
   -1.2633   -3.0423    0.9422 H   0  0  0  0  0  0  0  0  0  0  0  0
   -2.0937   -1.9016    1.9857 H   0  0  0  0  0  0  0  0  0  0  0  0
   -3.6417    3.6099    0.2863 H   0  0  0  0  0  0  0  0  0  0  0  0
   -3.0415    2.8131    1.6557 H   0  0  0  0  0  0  0  0  0  0  0  0
   -5.5935    2.4322   -0.4630 H   0  0  0  0  0  0  0  0  0  0  0  0
   -5.2758    0.8794   -0.9219 H   0  0  0  0  0  0  0  0  0  0  0  0
   -3.3405   -3.3564   -0.6795 H   0  0  0  0  0  0  0  0  0  0  0  0
   -3.5318   -2.1328   -1.9402 H   0  0  0  0  0  0  0  0  0  0  0  0
   -1.8930   -4.0338   -2.5346 H   0  0  0  0  0  0  0  0  0  0  0  0
    0.3178   -3.1023   -2.6627 H   0  0  0  0  0  0  0  0  0  0  0  0
    0.4352   -0.6927   -2.0712 H   0  0  0  0  0  0  0  0  0  0  0  0
   -1.3386    0.4214   -0.9047 H   0  0  0  0  0  0  0  0  0  0  0  0
    3.1075    2.5714   -0.1833 H   0  0  0  0  0  0  0  0  0  0  0  0
    5.2023    3.9187   -0.1046 H   0  0  0  0  0  0  0  0  0  0  0  0
    7.5052    0.3446    0.4733 H   0  0  0  0  0  0  0  0  0  0  0  0
    5.4227   -1.0233    0.3976 H   0  0  0  0  0  0  0  0  0  0  0  0
  2  1  1  0  0  0  0
  3  2  2  0  0  0  0
  4  2  1  0  0  0  0
  5  4  1  0  0  0  0
  6  5  1  0  0  0  0
  7  6  1  0  0  0  0
  8  7  2  0  0  0  0
  9  7  1  0  0  0  0
 10  9  2  0  0  0  0
 11 10  1  0  0  0  0
 12 10  1  0  0  0  0
 13  6  1  0  0  0  0
 14 13  1  0  0  0  0
 15 14  2  0  0  0  0
 16 15  1  0  0  0  0
 17 16  1  0  0  0  0
 17  6  1  0  0  0  0
 17  4  1  0  0  0  0
 18 16  1  0  0  0  0
 18  4  1  0  0  0  0
 19 18  1  0  0  0  0
 20 18  1  0  0  0  0
 21 20  3  0  0  0  0
 22 21  1  0  0  0  0
 23 22  2  0  0  0  0
 24 23  1  0  0  0  0
 25 24  2  0  0  0  0
 26 25  1  0  0  0  0
 27 25  1  0  0  0  0
 28 27  2  0  0  0  0
 28 22  1  0  0  0  0
  1 29  1  0  0  0  0
  1 30  1  0  0  0  0
  5 31  1  0  0  0  0
  5 32  1  0  0  0  0
 11 33  1  0  0  0  0
 11 34  1  0  0  0  0
 12 35  1  0  0  0  0
 12 36  1  0  0  0  0
 13 37  1  0  0  0  0
 13 38  1  0  0  0  0
 14 39  1  0  0  0  0
 15 40  1  0  0  0  0
 16 41  1  0  0  0  0
 17 42  1  0  0  0  0
 23 43  1  0  0  0  0
 24 44  1  0  0  0  0
 27 45  1  0  0  0  0
 28 46  1  0  0  0  0
M  END
>  <energy>
-120.51931686839325

$$$$
