CC(=O)Nc1cc2[n+](C)c(c1)C(=O)C(C(C)(C)C)=C2
                    3D

 38 39  0  0  0  0  0  0  0  0999 V2000
   -4.3739    1.5440   -0.2793 C   0  0  0  0  0  0  0  0  0  0  0  0
   -4.3425    0.5179   -1.3690 C   0  0  0  0  0  0  0  0  0  0  0  0
   -5.2259    0.4887   -2.2293 O   0  0  0  0  0  0  0  0  0  0  0  0
   -3.3384   -0.3987   -1.4732 N   0  0  0  0  0  0  0  0  0  0  0  0
   -2.2575   -0.7809   -0.6672 C   0  0  0  0  0  0  0  0  0  0  0  0
   -1.9902   -0.3376    0.6326 C   0  0  0  0  0  0  0  0  0  0  0  0
   -0.8465   -0.8485    1.3034 C   0  0  0  0  0  0  0  0  0  0  0  0
   -0.4145   -2.0410    0.8332 N   0  3  0  0  0  0  0  0  0  0  0  0
    0.3266   -2.9744    1.6913 C   0  0  0  0  0  0  0  0  0  0  0  0
   -0.1992   -2.0300   -0.4991 C   0  0  0  0  0  0  0  0  0  0  0  0
   -1.3013   -1.6131   -1.2691 C   0  0  0  0  0  0  0  0  0  0  0  0
    1.0110   -1.1561   -0.7525 C   0  0  0  0  0  0  0  0  0  0  0  0
    1.7104   -1.3753   -1.7257 O   0  0  0  0  0  0  0  0  0  0  0  0
    1.2410   -0.0252    0.2799 C   0  0  0  0  0  0  0  0  0  0  0  0
    2.4653    0.8908    0.0874 C   0  0  0  0  0  0  0  0  0  0  0  0
    2.2874    1.7351   -1.1905 C   0  0  0  0  0  0  0  0  0  0  0  0
    3.7658    0.0677   -0.0099 C   0  0  0  0  0  0  0  0  0  0  0  0
    2.6537    1.8853    1.2591 C   0  0  0  0  0  0  0  0  0  0  0  0
    0.3154    0.0949    1.2755 C   0  0  0  0  0  0  0  0  0  0  0  0
   -5.1243    2.3037   -0.5276 H   0  0  0  0  0  0  0  0  0  0  0  0
   -4.6559    1.0778    0.6676 H   0  0  0  0  0  0  0  0  0  0  0  0
   -3.4118    2.0566   -0.2060 H   0  0  0  0  0  0  0  0  0  0  0  0
   -3.4718   -0.9168   -2.3402 H   0  0  0  0  0  0  0  0  0  0  0  0
   -2.5415    0.4622    1.1104 H   0  0  0  0  0  0  0  0  0  0  0  0
    1.3439   -2.6060    1.8365 H   0  0  0  0  0  0  0  0  0  0  0  0
    0.3343   -3.9537    1.2056 H   0  0  0  0  0  0  0  0  0  0  0  0
   -0.2018   -3.0457    2.6461 H   0  0  0  0  0  0  0  0  0  0  0  0
   -1.2933   -1.7734   -2.3465 H   0  0  0  0  0  0  0  0  0  0  0  0
    2.2447    1.1159   -2.0918 H   0  0  0  0  0  0  0  0  0  0  0  0
    1.3651    2.3275   -1.1505 H   0  0  0  0  0  0  0  0  0  0  0  0
    3.1211    2.4348   -1.3175 H   0  0  0  0  0  0  0  0  0  0  0  0
    3.8274   -0.5127   -0.9356 H   0  0  0  0  0  0  0  0  0  0  0  0
    3.8606   -0.6307    0.8294 H   0  0  0  0  0  0  0  0  0  0  0  0
    4.6492    0.7173   -0.0004 H   0  0  0  0  0  0  0  0  0  0  0  0
    1.8026    2.5713    1.3507 H   0  0  0  0  0  0  0  0  0  0  0  0
    2.7800    1.3643    2.2157 H   0  0  0  0  0  0  0  0  0  0  0  0
    3.5441    2.5073    1.1085 H   0  0  0  0  0  0  0  0  0  0  0  0
    0.3407    0.8567    2.0481 H   0  0  0  0  0  0  0  0  0  0  0  0
  2  1  1  0  0  0  0
  3  2  2  0  0  0  0
  4  2  1  0  0  0  0
  5  4  1  0  0  0  0
  6  5  2  0  0  0  0
  7  6  1  0  0  0  0
  8  7  2  0  0  0  0
  9  8  1  0  0  0  0
 10  8  1  0  0  0  0
 11 10  2  0  0  0  0
 11  5  1  0  0  0  0
 12 10  1  0  0  0  0
 13 12  2  0  0  0  0
 14 12  1  0  0  0  0
 15 14  1  0  0  0  0
 16 15  1  0  0  0  0
 17 15  1  0  0  0  0
 18 15  1  0  0  0  0
 19 14  2  0  0  0  0
 19  7  1  0  0  0  0
  1 20  1  0  0  0  0
  1 21  1  0  0  0  0
  1 22  1  0  0  0  0
  4 23  1  0  0  0  0
  6 24  1  0  0  0  0
  9 25  1  0  0  0  0
  9 26  1  0  0  0  0
  9 27  1  0  0  0  0
 11 28  1  0  0  0  0
 16 29  1  0  0  0  0
 16 30  1  0  0  0  0
 16 31  1  0  0  0  0
 17 32  1  0  0  0  0
 17 33  1  0  0  0  0
 17 34  1  0  0  0  0
 18 35  1  0  0  0  0
 18 36  1  0  0  0  0
 18 37  1  0  0  0  0
 19 38  1  0  0  0  0
M  CHG  1   8   1
M  END
>  <energy>
135.11715521671874

$$$$
