CC(=CC=CCNO)C(F)=CC1(C)OC23CC(C)(CC(O)C2=O)C13
                    3D

 48 50  0  0  0  0  0  0  0  0999 V2000
   -1.4972   -3.3408   -1.9782 C   0  0  0  0  0  0  0  0  0  0  0  0
   -1.8570   -2.5010   -0.7754 C   0  0  0  0  0  0  0  0  0  0  0  0
   -3.1511   -2.4704   -0.3905 C   0  0  0  0  0  0  0  0  0  0  0  0
   -3.7489   -1.7609    0.7131 C   0  0  0  0  0  0  0  0  0  0  0  0
   -4.1897   -0.4923    0.6911 C   0  0  0  0  0  0  0  0  0  0  0  0
   -4.1649    0.4675   -0.4600 C   0  0  0  0  0  0  0  0  0  0  0  0
   -3.5014    1.7309   -0.1195 N   0  0  0  0  0  0  0  0  0  0  0  0
   -4.3820    2.4157    0.8176 O   0  0  0  0  0  0  0  0  0  0  0  0
   -0.7651   -1.8004   -0.0985 C   0  0  0  0  0  0  0  0  0  0  0  0
   -1.1174   -0.7780    0.7105 F   0  0  0  0  0  0  0  0  0  0  0  0
    0.5476   -2.0628   -0.2556 C   0  0  0  0  0  0  0  0  0  0  0  0
    1.6372   -1.2672    0.4282 C   0  0  0  0  0  0  0  0  0  0  0  0
    2.8906   -2.1387    0.5552 C   0  0  0  0  0  0  0  0  0  0  0  0
    1.2548   -0.7237    1.7306 O   0  0  0  0  0  0  0  0  0  0  0  0
    1.5746    0.6102    1.2964 C   0  0  0  0  0  0  0  0  0  0  0  0
    3.0619    1.0177    1.3234 C   0  0  0  0  0  0  0  0  0  0  0  0
    2.8807    1.1824   -0.1885 C   0  0  0  0  0  0  0  0  0  0  0  0
    4.1355    0.9274   -0.9931 C   0  0  0  0  0  0  0  0  0  0  0  0
    2.2346    2.5791   -0.4849 C   0  0  0  0  0  0  0  0  0  0  0  0
    0.8676    2.8118    0.2428 C   0  0  0  0  0  0  0  0  0  0  0  0
    0.8314    4.1496    0.7154 O   0  0  0  0  0  0  0  0  0  0  0  0
    0.6126    1.8220    1.4164 C   0  0  0  0  0  0  0  0  0  0  0  0
   -0.1980    2.0852    2.3083 O   0  0  0  0  0  0  0  0  0  0  0  0
    1.7420    0.1463   -0.1829 C   0  0  0  0  0  0  0  0  0  0  0  0
   -1.0117   -2.7218   -2.7398 H   0  0  0  0  0  0  0  0  0  0  0  0
   -0.8284   -4.1613   -1.7025 H   0  0  0  0  0  0  0  0  0  0  0  0
   -2.3755   -3.7958   -2.4494 H   0  0  0  0  0  0  0  0  0  0  0  0
   -3.8645   -3.0913   -0.9312 H   0  0  0  0  0  0  0  0  0  0  0  0
   -3.8960   -2.3477    1.6171 H   0  0  0  0  0  0  0  0  0  0  0  0
   -4.6651   -0.1096    1.5922 H   0  0  0  0  0  0  0  0  0  0  0  0
   -5.1974    0.6606   -0.7774 H   0  0  0  0  0  0  0  0  0  0  0  0
   -3.6432    0.0337   -1.3201 H   0  0  0  0  0  0  0  0  0  0  0  0
   -3.5461    2.3464   -0.9327 H   0  0  0  0  0  0  0  0  0  0  0  0
   -3.7981    2.4940    1.6000 H   0  0  0  0  0  0  0  0  0  0  0  0
    0.8769   -2.8614   -0.9136 H   0  0  0  0  0  0  0  0  0  0  0  0
    3.6628   -1.7077    1.1928 H   0  0  0  0  0  0  0  0  0  0  0  0
    3.3422   -2.3146   -0.4261 H   0  0  0  0  0  0  0  0  0  0  0  0
    2.6494   -3.1171    0.9909 H   0  0  0  0  0  0  0  0  0  0  0  0
    3.3000    1.9370    1.8695 H   0  0  0  0  0  0  0  0  0  0  0  0
    3.7736    0.2636    1.6522 H   0  0  0  0  0  0  0  0  0  0  0  0
    4.8951    1.6804   -0.7606 H   0  0  0  0  0  0  0  0  0  0  0  0
    4.5678   -0.0550   -0.7701 H   0  0  0  0  0  0  0  0  0  0  0  0
    3.9440    0.9731   -2.0695 H   0  0  0  0  0  0  0  0  0  0  0  0
    2.0684    2.6889   -1.5654 H   0  0  0  0  0  0  0  0  0  0  0  0
    2.9433    3.3702   -0.2092 H   0  0  0  0  0  0  0  0  0  0  0  0
    0.0481    2.6735   -0.4722 H   0  0  0  0  0  0  0  0  0  0  0  0
    0.1231    4.1776    1.3915 H   0  0  0  0  0  0  0  0  0  0  0  0
    0.9329    0.3746   -0.8882 H   0  0  0  0  0  0  0  0  0  0  0  0
  2  1  1  0  0  0  0
  3  2  2  0  0  0  0
  4  3  1  0  0  0  0
  5  4  2  0  0  0  0
  6  5  1  0  0  0  0
  7  6  1  0  0  0  0
  8  7  1  0  0  0  0
  9  2  1  0  0  0  0
 10  9  1  0  0  0  0
 11  9  2  0  0  0  0
 12 11  1  0  0  0  0
 13 12  1  0  0  0  0
 14 12  1  0  0  0  0
 15 14  1  0  0  0  0
 16 15  1  0  0  0  0
 17 16  1  0  0  0  0
 18 17  1  0  0  0  0
 19 17  1  0  0  0  0
 20 19  1  0  0  0  0
 21 20  1  0  0  0  0
 22 20  1  0  0  0  0
 22 15  1  0  0  0  0
 23 22  2  0  0  0  0
 24 17  1  0  0  0  0
 24 12  1  0  0  0  0
 24 15  1  0  0  0  0
  1 25  1  0  0  0  0
  1 26  1  0  0  0  0
  1 27  1  0  0  0  0
  3 28  1  0  0  0  0
  4 29  1  0  0  0  0
  5 30  1  0  0  0  0
  6 31  1  0  0  0  0
  6 32  1  0  0  0  0
  7 33  1  0  0  0  0
  8 34  1  0  0  0  0
 11 35  1  0  0  0  0
 13 36  1  0  0  0  0
 13 37  1  0  0  0  0
 13 38  1  0  0  0  0
 16 39  1  0  0  0  0
 16 40  1  0  0  0  0
 18 41  1  0  0  0  0
 18 42  1  0  0  0  0
 18 43  1  0  0  0  0
 19 44  1  0  0  0  0
 19 45  1  0  0  0  0
 20 46  1  0  0  0  0
 21 47  1  0  0  0  0
 24 48  1  0  0  0  0
M  END
>  <energy>
115.9438356430751

$$$$
