NC(=O)CCC1(C(N)=O)C2OC(Cl)(Cl)C2(Cl)C1(F)F
                    3D

 28 29  0  0  0  0  0  0  0  0999 V2000
   -3.6872   -0.5451    0.9976 N   0  0  0  0  0  0  0  0  0  0  0  0
   -3.0581   -0.9624   -0.1369 C   0  0  0  0  0  0  0  0  0  0  0  0
   -3.4881   -1.8946   -0.8034 O   0  0  0  0  0  0  0  0  0  0  0  0
   -1.7719   -0.2380   -0.4582 C   0  0  0  0  0  0  0  0  0  0  0  0
   -0.5688   -1.0904   -0.0677 C   0  0  0  0  0  0  0  0  0  0  0  0
    0.8034   -0.3843   -0.1147 C   0  0  0  0  0  0  0  0  0  0  0  0
    1.9549   -1.4730   -0.0822 C   0  0  0  0  0  0  0  0  0  0  0  0
    2.0442   -2.2216    1.0588 N   0  0  0  0  0  0  0  0  0  0  0  0
    2.7530   -1.6819   -0.9951 O   0  0  0  0  0  0  0  0  0  0  0  0
    1.0468    0.6842   -1.2231 C   0  0  0  0  0  0  0  0  0  0  0  0
    0.0646    1.7368   -1.4362 O   0  0  0  0  0  0  0  0  0  0  0  0
    0.9848    2.7147   -0.8573 C   0  0  0  0  0  0  0  0  0  0  0  0
    1.7894    3.6109   -2.2255 Cl  0  0  0  0  0  0  0  0  0  0  0  0
    0.1201    3.8777    0.2019 Cl  0  0  0  0  0  0  0  0  0  0  0  0
    1.7950    1.5655   -0.2042 C   0  0  0  0  0  0  0  0  0  0  0  0
    3.5650    1.6092   -0.1496 Cl  0  0  0  0  0  0  0  0  0  0  0  0
    1.0259    0.7879    0.9025 C   0  0  0  0  0  0  0  0  0  0  0  0
    1.7496    0.4579    2.0005 F   0  0  0  0  0  0  0  0  0  0  0  0
   -0.1047    1.3382    1.3988 F   0  0  0  0  0  0  0  0  0  0  0  0
   -4.6001   -0.9487    1.1760 H   0  0  0  0  0  0  0  0  0  0  0  0
   -3.4778    0.3462    1.4268 H   0  0  0  0  0  0  0  0  0  0  0  0
   -1.7687   -0.0286   -1.5335 H   0  0  0  0  0  0  0  0  0  0  0  0
   -1.7767    0.7252    0.0581 H   0  0  0  0  0  0  0  0  0  0  0  0
   -0.5472   -1.9547   -0.7442 H   0  0  0  0  0  0  0  0  0  0  0  0
   -0.7231   -1.5011    0.9376 H   0  0  0  0  0  0  0  0  0  0  0  0
    1.5147   -2.0389    1.9000 H   0  0  0  0  0  0  0  0  0  0  0  0
    2.8096   -2.8847    1.1191 H   0  0  0  0  0  0  0  0  0  0  0  0
    1.5517    0.3934   -2.1459 H   0  0  0  0  0  0  0  0  0  0  0  0
  2  1  1  0  0  0  0
  3  2  2  0  0  0  0
  4  2  1  0  0  0  0
  5  4  1  0  0  0  0
  6  5  1  0  0  0  0
  7  6  1  0  0  0  0
  8  7  1  0  0  0  0
  9  7  2  0  0  0  0
 10  6  1  0  0  0  0
 11 10  1  0  0  0  0
 12 11  1  0  0  0  0
 13 12  1  0  0  0  0
 14 12  1  0  0  0  0
 15 12  1  0  0  0  0
 15 10  1  0  0  0  0
 16 15  1  0  0  0  0
 17 15  1  0  0  0  0
 17  6  1  0  0  0  0
 18 17  1  0  0  0  0
 19 17  1  0  0  0  0
  1 20  1  0  0  0  0
  1 21  1  0  0  0  0
  4 22  1  0  0  0  0
  4 23  1  0  0  0  0
  5 24  1  0  0  0  0
  5 25  1  0  0  0  0
  8 26  1  0  0  0  0
  8 27  1  0  0  0  0
 10 28  1  0  0  0  0
M  END
>  <energy>
-67.973928266639405

$$$$
