CC=CC=COCC1(OC2OCC(O)C(O)C2O)C=C2C3C(=O)C2(OC)C3C1
                    3D

 54 57  0  0  0  0  0  0  0  0999 V2000
    2.7241   -3.3601   -0.4216 C   0  0  0  0  0  0  0  0  0  0  0  0
    3.6706   -2.4696   -1.1606 C   0  0  0  0  0  0  0  0  0  0  0  0
    3.5196   -1.9756   -2.3988 C   0  0  0  0  0  0  0  0  0  0  0  0
    2.3820   -2.1517   -3.2708 C   0  0  0  0  0  0  0  0  0  0  0  0
    1.1328   -1.7375   -3.0161 C   0  0  0  0  0  0  0  0  0  0  0  0
    0.7468   -1.1287   -1.8519 O   0  0  0  0  0  0  0  0  0  0  0  0
    0.4615    0.2600   -2.0940 C   0  0  0  0  0  0  0  0  0  0  0  0
    0.3934    1.0391   -0.7557 C   0  0  0  0  0  0  0  0  0  0  0  0
   -0.8882    1.0334   -0.1142 O   0  0  0  0  0  0  0  0  0  0  0  0
   -1.5897   -0.2044   -0.0406 C   0  0  0  0  0  0  0  0  0  0  0  0
   -2.4187   -0.3212   -1.1976 O   0  0  0  0  0  0  0  0  0  0  0  0
   -3.2652   -1.4681   -1.1568 C   0  0  0  0  0  0  0  0  0  0  0  0
   -4.2195   -1.4179    0.0319 C   0  0  0  0  0  0  0  0  0  0  0  0
   -5.0070   -2.6069    0.0858 O   0  0  0  0  0  0  0  0  0  0  0  0
   -3.4133   -1.2886    1.3247 C   0  0  0  0  0  0  0  0  0  0  0  0
   -4.3281   -1.1117    2.4186 O   0  0  0  0  0  0  0  0  0  0  0  0
   -2.4383   -0.1196    1.2482 C   0  0  0  0  0  0  0  0  0  0  0  0
   -3.2042    1.1062    1.2838 O   0  0  0  0  0  0  0  0  0  0  0  0
    0.6310    2.5126   -1.0272 C   0  0  0  0  0  0  0  0  0  0  0  0
    1.3647    3.2356   -0.1391 C   0  0  0  0  0  0  0  0  0  0  0  0
    2.8575    2.8358    0.2832 C   0  0  0  0  0  0  0  0  0  0  0  0
    2.5558    3.7467    1.5825 C   0  0  0  0  0  0  0  0  0  0  0  0
    3.1180    4.4951    2.3371 O   0  0  0  0  0  0  0  0  0  0  0  0
    1.1993    2.9940    1.4273 C   0  0  0  0  0  0  0  0  0  0  0  0
   -0.0183    3.1282    2.1146 O   0  0  0  0  0  0  0  0  0  0  0  0
    0.0641    3.0793    3.5292 C   0  0  0  0  0  0  0  0  0  0  0  0
    2.0464    1.7199    1.0987 C   0  0  0  0  0  0  0  0  0  0  0  0
    1.4613    0.5566    0.2710 C   0  0  0  0  0  0  0  0  0  0  0  0
    3.2869   -4.1655    0.0616 H   0  0  0  0  0  0  0  0  0  0  0  0
    1.9856   -3.8301   -1.0755 H   0  0  0  0  0  0  0  0  0  0  0  0
    2.2039   -2.7953    0.3571 H   0  0  0  0  0  0  0  0  0  0  0  0
    4.5890   -2.2276   -0.6283 H   0  0  0  0  0  0  0  0  0  0  0  0
    4.3342   -1.3943   -2.8283 H   0  0  0  0  0  0  0  0  0  0  0  0
    2.5995   -2.5728   -4.2493 H   0  0  0  0  0  0  0  0  0  0  0  0
    0.3159   -1.8361   -3.7205 H   0  0  0  0  0  0  0  0  0  0  0  0
    1.2681    0.6830   -2.7114 H   0  0  0  0  0  0  0  0  0  0  0  0
   -0.4779    0.3431   -2.6534 H   0  0  0  0  0  0  0  0  0  0  0  0
   -0.9079   -1.0605    0.0261 H   0  0  0  0  0  0  0  0  0  0  0  0
   -3.8391   -1.5099   -2.0892 H   0  0  0  0  0  0  0  0  0  0  0  0
   -2.6513   -2.3774   -1.1396 H   0  0  0  0  0  0  0  0  0  0  0  0
   -4.9093   -0.5711   -0.0681 H   0  0  0  0  0  0  0  0  0  0  0  0
   -5.4123   -2.6048    0.9771 H   0  0  0  0  0  0  0  0  0  0  0  0
   -2.8685   -2.2209    1.5205 H   0  0  0  0  0  0  0  0  0  0  0  0
   -4.5120   -0.1473    2.4363 H   0  0  0  0  0  0  0  0  0  0  0  0
   -1.7929   -0.0867    2.1331 H   0  0  0  0  0  0  0  0  0  0  0  0
   -2.5939    1.7881    0.9279 H   0  0  0  0  0  0  0  0  0  0  0  0
   -0.0576    3.0375   -1.6830 H   0  0  0  0  0  0  0  0  0  0  0  0
    3.7329    2.7589   -0.3330 H   0  0  0  0  0  0  0  0  0  0  0  0
    0.5649    2.1606    3.8494 H   0  0  0  0  0  0  0  0  0  0  0  0
   -0.9509    3.0909    3.9350 H   0  0  0  0  0  0  0  0  0  0  0  0
    0.6072    3.9530    3.9006 H   0  0  0  0  0  0  0  0  0  0  0  0
    2.6118    1.3113    1.9495 H   0  0  0  0  0  0  0  0  0  0  0  0
    1.0332   -0.1843    0.9558 H   0  0  0  0  0  0  0  0  0  0  0  0
    2.3024    0.0773   -0.2425 H   0  0  0  0  0  0  0  0  0  0  0  0
  2  1  1  0  0  0  0
  3  2  2  0  0  0  0
  4  3  1  0  0  0  0
  5  4  2  0  0  0  0
  6  5  1  0  0  0  0
  7  6  1  0  0  0  0
  8  7  1  0  0  0  0
  9  8  1  0  0  0  0
 10  9  1  0  0  0  0
 11 10  1  0  0  0  0
 12 11  1  0  0  0  0
 13 12  1  0  0  0  0
 14 13  1  0  0  0  0
 15 13  1  0  0  0  0
 16 15  1  0  0  0  0
 17 15  1  0  0  0  0
 17 10  1  0  0  0  0
 18 17  1  0  0  0  0
 19  8  1  0  0  0  0
 20 19  2  0  0  0  0
 21 20  1  0  0  0  0
 22 21  1  0  0  0  0
 23 22  2  0  0  0  0
 24 22  1  0  0  0  0
 24 20  1  0  0  0  0
 25 24  1  0  0  0  0
 26 25  1  0  0  0  0
 27 24  1  0  0  0  0
 27 21  1  0  0  0  0
 28 27  1  0  0  0  0
 28  8  1  0  0  0  0
  1 29  1  0  0  0  0
  1 30  1  0  0  0  0
  1 31  1  0  0  0  0
  2 32  1  0  0  0  0
  3 33  1  0  0  0  0
  4 34  1  0  0  0  0
  5 35  1  0  0  0  0
  7 36  1  0  0  0  0
  7 37  1  0  0  0  0
 10 38  1  0  0  0  0
 12 39  1  0  0  0  0
 12 40  1  0  0  0  0
 13 41  1  0  0  0  0
 14 42  1  0  0  0  0
 15 43  1  0  0  0  0
 16 44  1  0  0  0  0
 17 45  1  0  0  0  0
 18 46  1  0  0  0  0
 19 47  1  0  0  0  0
 21 48  1  0  0  0  0
 26 49  1  0  0  0  0
 26 50  1  0  0  0  0
 26 51  1  0  0  0  0
 27 52  1  0  0  0  0
 28 53  1  0  0  0  0
 28 54  1  0  0  0  0
M  END
>  <energy>
248.55082921162068

$$$$
