CC(=O)OCCCCC12CC3C(CO)C(O)C4(O)CC1OC4(CCN3C)CO2
                    3D

 61 64  0  0  0  0  0  0  0  0999 V2000
    3.5895    2.7857   -1.5462 C   0  0  0  0  0  0  0  0  0  0  0  0
    3.6767    3.3312   -0.1502 C   0  0  0  0  0  0  0  0  0  0  0  0
    3.2915    4.4764    0.0925 O   0  0  0  0  0  0  0  0  0  0  0  0
    4.1373    2.5381    0.8446 O   0  0  0  0  0  0  0  0  0  0  0  0
    4.8947    1.3347    0.6227 C   0  0  0  0  0  0  0  0  0  0  0  0
    3.9854    0.1216    0.4400 C   0  0  0  0  0  0  0  0  0  0  0  0
    3.3208   -0.3234    1.7506 C   0  0  0  0  0  0  0  0  0  0  0  0
    2.1415   -1.2711    1.4881 C   0  0  0  0  0  0  0  0  0  0  0  0
    0.7785   -0.5771    1.1204 C   0  0  0  0  0  0  0  0  0  0  0  0
    0.3498   -1.1268   -0.3335 C   0  0  0  0  0  0  0  0  0  0  0  0
   -0.9717   -0.8570   -1.2295 C   0  0  0  0  0  0  0  0  0  0  0  0
   -2.0567   -1.9324   -0.9694 C   0  0  0  0  0  0  0  0  0  0  0  0
   -2.9556   -2.2122   -2.1816 C   0  0  0  0  0  0  0  0  0  0  0  0
   -2.1758   -2.7887   -3.2294 O   0  0  0  0  0  0  0  0  0  0  0  0
   -2.8663   -1.7087    0.2877 C   0  0  0  0  0  0  0  0  0  0  0  0
   -4.1615   -1.1621    0.0220 O   0  0  0  0  0  0  0  0  0  0  0  0
   -2.1702   -0.9183    1.3929 C   0  0  0  0  0  0  0  0  0  0  0  0
   -3.2806   -0.7734    2.3847 O   0  0  0  0  0  0  0  0  0  0  0  0
   -1.1568   -1.7686    2.1516 C   0  0  0  0  0  0  0  0  0  0  0  0
   -0.1694   -0.6847    2.4174 C   0  0  0  0  0  0  0  0  0  0  0  0
   -1.0881    0.4941    2.6169 O   0  0  0  0  0  0  0  0  0  0  0  0
   -1.5645    0.5779    1.2577 C   0  0  0  0  0  0  0  0  0  0  0  0
   -2.6621    1.4209    0.6438 C   0  0  0  0  0  0  0  0  0  0  0  0
   -2.6280    1.1510   -0.9097 C   0  0  0  0  0  0  0  0  0  0  0  0
   -1.3885    0.5515   -1.4945 N   0  0  0  0  0  0  0  0  0  0  0  0
   -1.2769    0.9065   -2.9146 C   0  0  0  0  0  0  0  0  0  0  0  0
   -0.2661    1.4198    0.7911 C   0  0  0  0  0  0  0  0  0  0  0  0
    0.9992    0.8046    0.9481 O   0  0  0  0  0  0  0  0  0  0  0  0
    4.2151    1.9154   -1.7354 H   0  0  0  0  0  0  0  0  0  0  0  0
    3.9246    3.5624   -2.2419 H   0  0  0  0  0  0  0  0  0  0  0  0
    2.5493    2.5265   -1.7640 H   0  0  0  0  0  0  0  0  0  0  0  0
    5.5351    1.1929    1.5012 H   0  0  0  0  0  0  0  0  0  0  0  0
    5.5694    1.4712   -0.2287 H   0  0  0  0  0  0  0  0  0  0  0  0
    4.5825   -0.7129    0.0536 H   0  0  0  0  0  0  0  0  0  0  0  0
    3.2193    0.3447   -0.3058 H   0  0  0  0  0  0  0  0  0  0  0  0
    3.0045    0.5271    2.3639 H   0  0  0  0  0  0  0  0  0  0  0  0
    4.0704   -0.8616    2.3435 H   0  0  0  0  0  0  0  0  0  0  0  0
    1.9987   -1.9070    2.3711 H   0  0  0  0  0  0  0  0  0  0  0  0
    2.4373   -1.9846    0.7094 H   0  0  0  0  0  0  0  0  0  0  0  0
    0.4775   -2.2186   -0.3090 H   0  0  0  0  0  0  0  0  0  0  0  0
    1.1589   -0.7705   -0.9925 H   0  0  0  0  0  0  0  0  0  0  0  0
   -0.5668   -1.1920   -2.1985 H   0  0  0  0  0  0  0  0  0  0  0  0
   -1.4984   -2.8673   -0.8104 H   0  0  0  0  0  0  0  0  0  0  0  0
   -3.4377   -1.3069   -2.5601 H   0  0  0  0  0  0  0  0  0  0  0  0
   -3.7367   -2.9346   -1.9206 H   0  0  0  0  0  0  0  0  0  0  0  0
   -2.7710   -2.8935   -3.9910 H   0  0  0  0  0  0  0  0  0  0  0  0
   -3.1026   -2.7048    0.6891 H   0  0  0  0  0  0  0  0  0  0  0  0
   -4.5135   -0.9509    0.9166 H   0  0  0  0  0  0  0  0  0  0  0  0
   -2.8977   -0.2057    3.0893 H   0  0  0  0  0  0  0  0  0  0  0  0
   -0.7343   -2.6131    1.6017 H   0  0  0  0  0  0  0  0  0  0  0  0
   -1.5659   -2.1607    3.0909 H   0  0  0  0  0  0  0  0  0  0  0  0
    0.3903   -0.8016    3.3493 H   0  0  0  0  0  0  0  0  0  0  0  0
   -2.4981    2.4879    0.8444 H   0  0  0  0  0  0  0  0  0  0  0  0
   -3.6620    1.2305    1.0450 H   0  0  0  0  0  0  0  0  0  0  0  0
   -2.7549    2.1542   -1.3426 H   0  0  0  0  0  0  0  0  0  0  0  0
   -3.5167    0.6187   -1.2535 H   0  0  0  0  0  0  0  0  0  0  0  0
   -0.2959    0.6352   -3.3242 H   0  0  0  0  0  0  0  0  0  0  0  0
   -1.3555    1.9906   -3.0562 H   0  0  0  0  0  0  0  0  0  0  0  0
   -2.0544    0.4238   -3.5130 H   0  0  0  0  0  0  0  0  0  0  0  0
   -0.2185    2.2992    1.4533 H   0  0  0  0  0  0  0  0  0  0  0  0
   -0.2782    1.8967   -0.1887 H   0  0  0  0  0  0  0  0  0  0  0  0
  2  1  1  0  0  0  0
  3  2  2  0  0  0  0
  4  2  1  0  0  0  0
  5  4  1  0  0  0  0
  6  5  1  0  0  0  0
  7  6  1  0  0  0  0
  8  7  1  0  0  0  0
  9  8  1  0  0  0  0
 10  9  1  0  0  0  0
 11 10  1  0  0  0  0
 12 11  1  0  0  0  0
 13 12  1  0  0  0  0
 14 13  1  0  0  0  0
 15 12  1  0  0  0  0
 16 15  1  0  0  0  0
 17 15  1  0  0  0  0
 18 17  1  0  0  0  0
 19 17  1  0  0  0  0
 20 19  1  0  0  0  0
 20  9  1  0  0  0  0
 21 20  1  0  0  0  0
 22 21  1  0  0  0  0
 22 17  1  0  0  0  0
 23 22  1  0  0  0  0
 24 23  1  0  0  0  0
 25 24  1  0  0  0  0
 25 11  1  0  0  0  0
 26 25  1  0  0  0  0
 27 22  1  0  0  0  0
 28 27  1  0  0  0  0
 28  9  1  0  0  0  0
  1 29  1  0  0  0  0
  1 30  1  0  0  0  0
  1 31  1  0  0  0  0
  5 32  1  0  0  0  0
  5 33  1  0  0  0  0
  6 34  1  0  0  0  0
  6 35  1  0  0  0  0
  7 36  1  0  0  0  0
  7 37  1  0  0  0  0
  8 38  1  0  0  0  0
  8 39  1  0  0  0  0
 10 40  1  0  0  0  0
 10 41  1  0  0  0  0
 11 42  1  0  0  0  0
 12 43  1  0  0  0  0
 13 44  1  0  0  0  0
 13 45  1  0  0  0  0
 14 46  1  0  0  0  0
 15 47  1  0  0  0  0
 16 48  1  0  0  0  0
 18 49  1  0  0  0  0
 19 50  1  0  0  0  0
 19 51  1  0  0  0  0
 20 52  1  0  0  0  0
 23 53  1  0  0  0  0
 23 54  1  0  0  0  0
 24 55  1  0  0  0  0
 24 56  1  0  0  0  0
 26 57  1  0  0  0  0
 26 58  1  0  0  0  0
 26 59  1  0  0  0  0
 27 60  1  0  0  0  0
 27 61  1  0  0  0  0
M  END
>  <energy>
283.26885990900411

$$$$
