CC1(C)C2C(O)C13C(OC#N)CC23C
                    3D

 29 31  0  0  0  0  0  0  0  0999 V2000
   -1.5719   -1.7278   -0.9504 C   0  0  0  0  0  0  0  0  0  0  0  0
   -0.5735   -0.9615   -0.0550 C   0  0  0  0  0  0  0  0  0  0  0  0
   -0.9322   -1.3028    1.3913 C   0  0  0  0  0  0  0  0  0  0  0  0
    0.9387   -0.9809   -0.4268 C   0  0  0  0  0  0  0  0  0  0  0  0
    0.6481   -0.0480   -1.6680 C   0  0  0  0  0  0  0  0  0  0  0  0
    1.6815    0.8444   -2.1347 O   0  0  0  0  0  0  0  0  0  0  0  0
   -0.3192    0.4549   -0.6112 C   0  0  0  0  0  0  0  0  0  0  0  0
   -0.5082    1.7747    0.0386 C   0  0  0  0  0  0  0  0  0  0  0  0
   -1.8450    2.1074    0.4688 O   0  0  0  0  0  0  0  0  0  0  0  0
   -2.6079    2.4082   -0.5759 C   0  0  0  0  0  0  0  0  0  0  0  0
   -3.2845    2.6660   -1.4822 N   0  0  0  0  0  0  0  0  0  0  0  0
    0.4117    1.3624    1.1869 C   0  0  0  0  0  0  0  0  0  0  0  0
    1.2202    0.3971    0.3074 C   0  0  0  0  0  0  0  0  0  0  0  0
    2.3779   -0.0755    1.1571 C   0  0  0  0  0  0  0  0  0  0  0  0
   -1.7736   -2.7276   -0.5499 H   0  0  0  0  0  0  0  0  0  0  0  0
   -2.5256   -1.1860   -0.9866 H   0  0  0  0  0  0  0  0  0  0  0  0
   -1.2260   -1.8843   -1.9755 H   0  0  0  0  0  0  0  0  0  0  0  0
   -0.1597   -1.0534    2.1187 H   0  0  0  0  0  0  0  0  0  0  0  0
   -1.0852   -2.3827    1.5177 H   0  0  0  0  0  0  0  0  0  0  0  0
   -1.8579   -0.7936    1.6826 H   0  0  0  0  0  0  0  0  0  0  0  0
    1.5767   -1.8566   -0.5042 H   0  0  0  0  0  0  0  0  0  0  0  0
    0.1939   -0.5299   -2.5359 H   0  0  0  0  0  0  0  0  0  0  0  0
    2.2918    0.2915   -2.6534 H   0  0  0  0  0  0  0  0  0  0  0  0
   -0.0805    2.5930   -0.5568 H   0  0  0  0  0  0  0  0  0  0  0  0
   -0.0827    0.9629    2.0752 H   0  0  0  0  0  0  0  0  0  0  0  0
    1.0016    2.2116    1.5533 H   0  0  0  0  0  0  0  0  0  0  0  0
    2.0510   -0.7207    1.9802 H   0  0  0  0  0  0  0  0  0  0  0  0
    2.9010    0.7769    1.6050 H   0  0  0  0  0  0  0  0  0  0  0  0
    3.1396   -0.6200    0.5838 H   0  0  0  0  0  0  0  0  0  0  0  0
  2  1  1  0  0  0  0
  3  2  1  0  0  0  0
  4  2  1  0  0  0  0
  5  4  1  0  0  0  0
  6  5  1  0  0  0  0
  7  5  1  0  0  0  0
  7  2  1  0  0  0  0
  8  7  1  0  0  0  0
  9  8  1  0  0  0  0
 10  9  1  0  0  0  0
 11 10  3  0  0  0  0
 12  8  1  0  0  0  0
 13 12  1  0  0  0  0
 13  4  1  0  0  0  0
 13  7  1  0  0  0  0
 14 13  1  0  0  0  0
  1 15  1  0  0  0  0
  1 16  1  0  0  0  0
  1 17  1  0  0  0  0
  3 18  1  0  0  0  0
  3 19  1  0  0  0  0
  3 20  1  0  0  0  0
  4 21  1  0  0  0  0
  5 22  1  0  0  0  0
  6 23  1  0  0  0  0
  8 24  1  0  0  0  0
 12 25  1  0  0  0  0
 12 26  1  0  0  0  0
 14 27  1  0  0  0  0
 14 28  1  0  0  0  0
 14 29  1  0  0  0  0
M  END
>  <energy>
121.41115608579646

$$$$
