CON1C2CCC2C1(C)O
                    3D

 23 24  0  0  0  0  0  0  0  0999 V2000
    1.9232   -2.1661   -0.3583 C   0  0  0  0  0  0  0  0  0  0  0  0
    1.3077   -1.2089    0.4968 O   0  0  0  0  0  0  0  0  0  0  0  0
    0.2688   -0.5235   -0.2673 N   0  0  0  0  0  0  0  0  0  0  0  0
   -0.9027   -0.5037    0.6227 C   0  0  0  0  0  0  0  0  0  0  0  0
   -2.1921   -0.6138   -0.1961 C   0  0  0  0  0  0  0  0  0  0  0  0
   -2.1466    0.9019   -0.4580 C   0  0  0  0  0  0  0  0  0  0  0  0
   -0.9658    1.0195    0.5218 C   0  0  0  0  0  0  0  0  0  0  0  0
    0.4423    0.9375   -0.0971 C   0  0  0  0  0  0  0  0  0  0  0  0
    1.5497    1.4108    0.8346 C   0  0  0  0  0  0  0  0  0  0  0  0
    0.6182    1.5372   -1.3863 O   0  0  0  0  0  0  0  0  0  0  0  0
    2.3879   -1.6709   -1.2171 H   0  0  0  0  0  0  0  0  0  0  0  0
    1.1895   -2.9052   -0.6959 H   0  0  0  0  0  0  0  0  0  0  0  0
    2.7015   -2.6823    0.2102 H   0  0  0  0  0  0  0  0  0  0  0  0
   -0.8419   -0.9622    1.6115 H   0  0  0  0  0  0  0  0  0  0  0  0
   -3.0567   -0.9215    0.4031 H   0  0  0  0  0  0  0  0  0  0  0  0
   -2.1495   -1.2477   -1.0872 H   0  0  0  0  0  0  0  0  0  0  0  0
   -1.9394    1.1782   -1.4965 H   0  0  0  0  0  0  0  0  0  0  0  0
   -3.0482    1.4339   -0.1371 H   0  0  0  0  0  0  0  0  0  0  0  0
   -1.1259    1.5693    1.4506 H   0  0  0  0  0  0  0  0  0  0  0  0
    1.4610    0.9798    1.8385 H   0  0  0  0  0  0  0  0  0  0  0  0
    2.5392    1.1563    0.4383 H   0  0  0  0  0  0  0  0  0  0  0  0
    1.5121    2.5003    0.9480 H   0  0  0  0  0  0  0  0  0  0  0  0
    0.4675    0.7811   -1.9793 H   0  0  0  0  0  0  0  0  0  0  0  0
  2  1  1  0  0  0  0
  3  2  1  0  0  0  0
  4  3  1  0  0  0  0
  5  4  1  0  0  0  0
  6  5  1  0  0  0  0
  7  6  1  0  0  0  0
  7  4  1  0  0  0  0
  8  7  1  0  0  0  0
  8  3  1  0  0  0  0
  9  8  1  0  0  0  0
 10  8  1  0  0  0  0
  1 11  1  0  0  0  0
  1 12  1  0  0  0  0
  1 13  1  0  0  0  0
  4 14  1  0  0  0  0
  5 15  1  0  0  0  0
  5 16  1  0  0  0  0
  6 17  1  0  0  0  0
  6 18  1  0  0  0  0
  7 19  1  0  0  0  0
  9 20  1  0  0  0  0
  9 21  1  0  0  0  0
  9 22  1  0  0  0  0
 10 23  1  0  0  0  0
M  END
>  <energy>
18.562945791191822

$$$$
