CCCCCCN1CC2(CCS1(=O)=O)C[NH+]1CC3(C=CC(=O)N3)C12
                    3D

 52 55  0  0  0  0  0  0  0  0999 V2000
   -2.6778   -3.0105    0.6685 C   0  0  0  0  0  0  0  0  0  0  0  0
   -2.4290   -2.6120   -0.7772 C   0  0  0  0  0  0  0  0  0  0  0  0
   -1.9856   -1.1488   -0.8960 C   0  0  0  0  0  0  0  0  0  0  0  0
   -1.8964   -0.6989   -2.3595 C   0  0  0  0  0  0  0  0  0  0  0  0
   -2.3014    0.7657   -2.5916 C   0  0  0  0  0  0  0  0  0  0  0  0
   -1.2200    1.8109   -2.3295 C   0  0  0  0  0  0  0  0  0  0  0  0
   -0.7888    1.8310   -0.8973 N   0  0  0  0  0  0  0  0  0  0  0  0
    0.6284    2.1958   -0.7071 C   0  0  0  0  0  0  0  0  0  0  0  0
    1.1408    1.5264    0.5822 C   0  0  0  0  0  0  0  0  0  0  0  0
    0.0361    1.3636    1.6533 C   0  0  0  0  0  0  0  0  0  0  0  0
   -0.9266    2.5539    1.6866 C   0  0  0  0  0  0  0  0  0  0  0  0
   -1.8114    2.7712    0.1374 S   0  0  0  0  0  0  0  0  0  0  0  0
   -1.6532    4.1525   -0.2668 O   0  0  0  0  0  0  0  0  0  0  0  0
   -3.0914    2.1195    0.2225 O   0  0  0  0  0  0  0  0  0  0  0  0
    2.5228    2.1744    1.0120 C   0  0  0  0  0  0  0  0  0  0  0  0
    2.8639    0.8420    1.5007 N   0  3  0  0  0  0  0  0  0  0  0  0
    3.7402   -0.2938    1.1834 C   0  0  0  0  0  0  0  0  0  0  0  0
    2.4056   -1.0275    0.7463 C   0  0  0  0  0  0  0  0  0  0  0  0
    1.5998   -1.7303    1.7797 C   0  0  0  0  0  0  0  0  0  0  0  0
    1.3495   -3.0000    1.4215 C   0  0  0  0  0  0  0  0  0  0  0  0
    1.9346   -3.2453    0.0945 C   0  0  0  0  0  0  0  0  0  0  0  0
    1.8640   -4.2715   -0.5491 O   0  0  0  0  0  0  0  0  0  0  0  0
    2.5593   -2.0778   -0.2650 N   0  0  0  0  0  0  0  0  0  0  0  0
    2.0591    0.3534    0.2248 C   0  0  0  0  0  0  0  0  0  0  0  0
   -3.4553   -2.3824    1.1138 H   0  0  0  0  0  0  0  0  0  0  0  0
   -3.0099   -4.0537    0.7262 H   0  0  0  0  0  0  0  0  0  0  0  0
   -1.7699   -2.9054    1.2675 H   0  0  0  0  0  0  0  0  0  0  0  0
   -3.3600   -2.7629   -1.3379 H   0  0  0  0  0  0  0  0  0  0  0  0
   -1.6704   -3.2706   -1.2154 H   0  0  0  0  0  0  0  0  0  0  0  0
   -2.6977   -0.5248   -0.3486 H   0  0  0  0  0  0  0  0  0  0  0  0
   -1.0071   -1.0268   -0.4142 H   0  0  0  0  0  0  0  0  0  0  0  0
   -2.5810   -1.3124   -2.9601 H   0  0  0  0  0  0  0  0  0  0  0  0
   -0.8888   -0.8879   -2.7459 H   0  0  0  0  0  0  0  0  0  0  0  0
   -2.5818    0.8597   -3.6492 H   0  0  0  0  0  0  0  0  0  0  0  0
   -3.2071    0.9951   -2.0226 H   0  0  0  0  0  0  0  0  0  0  0  0
   -0.3640    1.5942   -2.9798 H   0  0  0  0  0  0  0  0  0  0  0  0
   -1.5777    2.8050   -2.6272 H   0  0  0  0  0  0  0  0  0  0  0  0
    1.2253    1.9050   -1.5786 H   0  0  0  0  0  0  0  0  0  0  0  0
    0.7296    3.2861   -0.6392 H   0  0  0  0  0  0  0  0  0  0  0  0
   -0.5385    0.4534    1.4512 H   0  0  0  0  0  0  0  0  0  0  0  0
    0.4667    1.2430    2.6537 H   0  0  0  0  0  0  0  0  0  0  0  0
   -0.3840    3.4847    1.8904 H   0  0  0  0  0  0  0  0  0  0  0  0
   -1.6818    2.4133    2.4644 H   0  0  0  0  0  0  0  0  0  0  0  0
    3.1871    2.5440    0.2222 H   0  0  0  0  0  0  0  0  0  0  0  0
    2.4484    2.9237    1.8037 H   0  0  0  0  0  0  0  0  0  0  0  0
    2.3967    0.6573    2.4025 H   0  0  0  0  0  0  0  0  0  0  0  0
    4.2448   -0.7013    2.0634 H   0  0  0  0  0  0  0  0  0  0  0  0
    4.4809   -0.0863    0.4057 H   0  0  0  0  0  0  0  0  0  0  0  0
    1.2739   -1.3289    2.7276 H   0  0  0  0  0  0  0  0  0  0  0  0
    0.8103   -3.7622    1.9615 H   0  0  0  0  0  0  0  0  0  0  0  0
    2.9784   -2.0415   -1.1889 H   0  0  0  0  0  0  0  0  0  0  0  0
    2.6102    0.5384   -0.7207 H   0  0  0  0  0  0  0  0  0  0  0  0
  2  1  1  0  0  0  0
  3  2  1  0  0  0  0
  4  3  1  0  0  0  0
  5  4  1  0  0  0  0
  6  5  1  0  0  0  0
  7  6  1  0  0  0  0
  8  7  1  0  0  0  0
  9  8  1  0  0  0  0
 10  9  1  0  0  0  0
 11 10  1  0  0  0  0
 12 11  1  0  0  0  0
 12  7  1  0  0  0  0
 13 12  2  0  0  0  0
 14 12  2  0  0  0  0
 15  9  1  0  0  0  0
 16 15  1  0  0  0  0
 17 16  1  0  0  0  0
 18 17  1  0  0  0  0
 19 18  1  0  0  0  0
 20 19  2  0  0  0  0
 21 20  1  0  0  0  0
 22 21  2  0  0  0  0
 23 21  1  0  0  0  0
 23 18  1  0  0  0  0
 24 18  1  0  0  0  0
 24 16  1  0  0  0  0
 24  9  1  0  0  0  0
  1 25  1  0  0  0  0
  1 26  1  0  0  0  0
  1 27  1  0  0  0  0
  2 28  1  0  0  0  0
  2 29  1  0  0  0  0
  3 30  1  0  0  0  0
  3 31  1  0  0  0  0
  4 32  1  0  0  0  0
  4 33  1  0  0  0  0
  5 34  1  0  0  0  0
  5 35  1  0  0  0  0
  6 36  1  0  0  0  0
  6 37  1  0  0  0  0
  8 38  1  0  0  0  0
  8 39  1  0  0  0  0
 10 40  1  0  0  0  0
 10 41  1  0  0  0  0
 11 42  1  0  0  0  0
 11 43  1  0  0  0  0
 15 44  1  0  0  0  0
 15 45  1  0  0  0  0
 16 46  1  0  0  0  0
 17 47  1  0  0  0  0
 17 48  1  0  0  0  0
 19 49  1  0  0  0  0
 20 50  1  0  0  0  0
 23 51  1  0  0  0  0
 24 52  1  0  0  0  0
M  CHG  1  16   1
M  END
>  <energy>
45.271995973635178

$$$$
