COCCC1OC(C)(C)OC1CC1(O)C2C3(CBr)CC4CC35CCC21C4(OC)CC5=N
                    3D

 67 72  0  0  0  0  0  0  0  0999 V2000
   -3.3002    3.3688   -0.4548 C   0  0  0  0  0  0  0  0  0  0  0  0
   -4.0895    2.2112   -0.2148 O   0  0  0  0  0  0  0  0  0  0  0  0
   -3.8792    1.6560    1.0837 C   0  0  0  0  0  0  0  0  0  0  0  0
   -2.7059    0.6687    1.0903 C   0  0  0  0  0  0  0  0  0  0  0  0
   -3.1687   -0.7936    1.0945 C   0  0  0  0  0  0  0  0  0  0  0  0
   -4.0248   -1.0444   -0.0284 O   0  0  0  0  0  0  0  0  0  0  0  0
   -3.1999   -1.6578   -1.0285 C   0  0  0  0  0  0  0  0  0  0  0  0
   -3.0386   -0.7217   -2.2186 C   0  0  0  0  0  0  0  0  0  0  0  0
   -3.8562   -2.9672   -1.4557 C   0  0  0  0  0  0  0  0  0  0  0  0
   -1.9066   -1.9426   -0.4799 O   0  0  0  0  0  0  0  0  0  0  0  0
   -2.0844   -1.8544    0.9387 C   0  0  0  0  0  0  0  0  0  0  0  0
   -0.7764   -1.6775    1.7250 C   0  0  0  0  0  0  0  0  0  0  0  0
    0.4572   -1.4255    0.8885 C   0  0  0  0  0  0  0  0  0  0  0  0
    0.6744   -2.4666   -0.0728 O   0  0  0  0  0  0  0  0  0  0  0  0
    1.7111   -0.8827    1.5415 C   0  0  0  0  0  0  0  0  0  0  0  0
    3.1540   -0.5498    1.1955 C   0  0  0  0  0  0  0  0  0  0  0  0
    4.0418   -0.9651    2.3881 C   0  0  0  0  0  0  0  0  0  0  0  0
    5.9039   -0.4315    2.2542 Br  0  0  0  0  0  0  0  0  0  0  0  0
    3.4674   -1.3687   -0.0613 C   0  0  0  0  0  0  0  0  0  0  0  0
    3.0719   -0.3334   -1.0738 C   0  0  0  0  0  0  0  0  0  0  0  0
    4.0051    0.7787   -0.5421 C   0  0  0  0  0  0  0  0  0  0  0  0
    3.3400    1.1820    0.8201 C   0  0  0  0  0  0  0  0  0  0  0  0
    2.1981    1.6922    1.8068 C   0  0  0  0  0  0  0  0  0  0  0  0
    0.7500    1.2359    1.3969 C   0  0  0  0  0  0  0  0  0  0  0  0
    0.9255   -0.0324    0.5659 C   0  0  0  0  0  0  0  0  0  0  0  0
    1.5433    0.1616   -0.9356 C   0  0  0  0  0  0  0  0  0  0  0  0
    0.6109   -0.4536   -1.8325 O   0  0  0  0  0  0  0  0  0  0  0  0
    1.0554   -0.7397   -3.1462 C   0  0  0  0  0  0  0  0  0  0  0  0
    1.5978    1.6573   -1.2357 C   0  0  0  0  0  0  0  0  0  0  0  0
    2.5846    2.2117   -0.2158 C   0  0  0  0  0  0  0  0  0  0  0  0
    2.8881    3.4756   -0.2052 N   0  0  0  0  0  0  0  0  0  0  0  0
   -2.2369    3.1617   -0.3053 H   0  0  0  0  0  0  0  0  0  0  0  0
   -3.4538    3.6801   -1.4913 H   0  0  0  0  0  0  0  0  0  0  0  0
   -3.6185    4.1846    0.2017 H   0  0  0  0  0  0  0  0  0  0  0  0
   -4.8093    1.1650    1.3883 H   0  0  0  0  0  0  0  0  0  0  0  0
   -3.7013    2.4639    1.8040 H   0  0  0  0  0  0  0  0  0  0  0  0
   -2.0485    0.8548    0.2365 H   0  0  0  0  0  0  0  0  0  0  0  0
   -2.1310    0.8454    2.0045 H   0  0  0  0  0  0  0  0  0  0  0  0
   -3.7411   -0.9753    2.0118 H   0  0  0  0  0  0  0  0  0  0  0  0
   -2.5139    0.1942   -1.9287 H   0  0  0  0  0  0  0  0  0  0  0  0
   -2.4445   -1.1887   -3.0112 H   0  0  0  0  0  0  0  0  0  0  0  0
   -4.0107   -0.4243   -2.6251 H   0  0  0  0  0  0  0  0  0  0  0  0
   -4.8571   -2.7952   -1.8656 H   0  0  0  0  0  0  0  0  0  0  0  0
   -3.2467   -3.4940   -2.1982 H   0  0  0  0  0  0  0  0  0  0  0  0
   -3.9721   -3.6402   -0.5979 H   0  0  0  0  0  0  0  0  0  0  0  0
   -2.5196   -2.8154    1.2473 H   0  0  0  0  0  0  0  0  0  0  0  0
   -0.5904   -2.6173    2.2630 H   0  0  0  0  0  0  0  0  0  0  0  0
   -0.8970   -0.9413    2.5261 H   0  0  0  0  0  0  0  0  0  0  0  0
    0.0400   -2.3294   -0.8096 H   0  0  0  0  0  0  0  0  0  0  0  0
    1.5679   -0.8055    2.6202 H   0  0  0  0  0  0  0  0  0  0  0  0
    4.0435   -2.0522    2.5214 H   0  0  0  0  0  0  0  0  0  0  0  0
    3.6966   -0.5192    3.3257 H   0  0  0  0  0  0  0  0  0  0  0  0
    4.5298   -1.6299   -0.1469 H   0  0  0  0  0  0  0  0  0  0  0  0
    2.9339   -2.3139   -0.1535 H   0  0  0  0  0  0  0  0  0  0  0  0
    3.3617   -0.6248   -2.0845 H   0  0  0  0  0  0  0  0  0  0  0  0
    4.2238    1.5389   -1.3133 H   0  0  0  0  0  0  0  0  0  0  0  0
    5.0257    0.4167   -0.3579 H   0  0  0  0  0  0  0  0  0  0  0  0
    2.4205    1.3070    2.8121 H   0  0  0  0  0  0  0  0  0  0  0  0
    2.2128    2.7753    2.0000 H   0  0  0  0  0  0  0  0  0  0  0  0
    0.2022    2.0204    0.8676 H   0  0  0  0  0  0  0  0  0  0  0  0
    0.1721    1.0593    2.3116 H   0  0  0  0  0  0  0  0  0  0  0  0
    0.1801   -0.9922   -3.7511 H   0  0  0  0  0  0  0  0  0  0  0  0
    1.7125   -1.6136   -3.1424 H   0  0  0  0  0  0  0  0  0  0  0  0
    1.5543    0.1160   -3.6074 H   0  0  0  0  0  0  0  0  0  0  0  0
    1.9786    1.8638   -2.2423 H   0  0  0  0  0  0  0  0  0  0  0  0
    0.6246    2.1518   -1.1710 H   0  0  0  0  0  0  0  0  0  0  0  0
    2.3618    3.9826   -0.9267 H   0  0  0  0  0  0  0  0  0  0  0  0
  2  1  1  0  0  0  0
  3  2  1  0  0  0  0
  4  3  1  0  0  0  0
  5  4  1  0  0  0  0
  6  5  1  0  0  0  0
  7  6  1  0  0  0  0
  8  7  1  0  0  0  0
  9  7  1  0  0  0  0
 10  7  1  0  0  0  0
 11 10  1  0  0  0  0
 11  5  1  0  0  0  0
 12 11  1  0  0  0  0
 13 12  1  0  0  0  0
 14 13  1  0  0  0  0
 15 13  1  0  0  0  0
 16 15  1  0  0  0  0
 17 16  1  0  0  0  0
 18 17  1  0  0  0  0
 19 16  1  0  0  0  0
 20 19  1  0  0  0  0
 21 20  1  0  0  0  0
 22 21  1  0  0  0  0
 22 16  1  0  0  0  0
 23 22  1  0  0  0  0
 24 23  1  0  0  0  0
 25 24  1  0  0  0  0
 25 15  1  0  0  0  0
 25 13  1  0  0  0  0
 26 25  1  0  0  0  0
 26 20  1  0  0  0  0
 27 26  1  0  0  0  0
 28 27  1  0  0  0  0
 29 26  1  0  0  0  0
 30 29  1  0  0  0  0
 30 22  1  0  0  0  0
 31 30  2  0  0  0  0
  1 32  1  0  0  0  0
  1 33  1  0  0  0  0
  1 34  1  0  0  0  0
  3 35  1  0  0  0  0
  3 36  1  0  0  0  0
  4 37  1  0  0  0  0
  4 38  1  0  0  0  0
  5 39  1  0  0  0  0
  8 40  1  0  0  0  0
  8 41  1  0  0  0  0
  8 42  1  0  0  0  0
  9 43  1  0  0  0  0
  9 44  1  0  0  0  0
  9 45  1  0  0  0  0
 11 46  1  0  0  0  0
 12 47  1  0  0  0  0
 12 48  1  0  0  0  0
 14 49  1  0  0  0  0
 15 50  1  0  0  0  0
 17 51  1  0  0  0  0
 17 52  1  0  0  0  0
 19 53  1  0  0  0  0
 19 54  1  0  0  0  0
 20 55  1  0  0  0  0
 21 56  1  0  0  0  0
 21 57  1  0  0  0  0
 23 58  1  0  0  0  0
 23 59  1  0  0  0  0
 24 60  1  0  0  0  0
 24 61  1  0  0  0  0
 28 62  1  0  0  0  0
 28 63  1  0  0  0  0
 28 64  1  0  0  0  0
 29 65  1  0  0  0  0
 29 66  1  0  0  0  0
 31 67  1  0  0  0  0
M  END
>  <energy>
289.13934500733808

$$$$
