[N-]CCNCCCCCNC(=NC1CCCC1)NC1C2CCCN3C4C5C2C2CC1(C24)C53
                    3D

 74 80  0  0  0  0  0  0  0  0999 V2000
    5.6259    1.6323    3.7988 N   0  5  0  0  0  0  0  0  0  0  0  0
    4.3771    1.0693    3.3088 C   0  0  0  0  0  0  0  0  0  0  0  0
    4.6784    0.1549    2.1338 C   0  0  0  0  0  0  0  0  0  0  0  0
    3.4564   -0.4967    1.6706 N   0  0  0  0  0  0  0  0  0  0  0  0
    3.6892   -1.2317    0.4298 C   0  0  0  0  0  0  0  0  0  0  0  0
    2.3705   -1.8012   -0.0958 C   0  0  0  0  0  0  0  0  0  0  0  0
    2.5660   -2.4333   -1.4798 C   0  0  0  0  0  0  0  0  0  0  0  0
    1.2534   -2.8866   -2.1260 C   0  0  0  0  0  0  0  0  0  0  0  0
    0.3608   -1.7188   -2.5584 C   0  0  0  0  0  0  0  0  0  0  0  0
   -1.0227   -2.0246   -2.2141 N   0  0  0  0  0  0  0  0  0  0  0  0
   -1.7820   -1.1795   -1.4557 C   0  0  0  0  0  0  0  0  0  0  0  0
   -2.6664   -1.5017   -0.5807 N   0  0  0  0  0  0  0  0  0  0  0  0
   -2.8919   -2.9241   -0.3022 C   0  0  0  0  0  0  0  0  0  0  0  0
   -1.7858   -3.5309    0.5639 C   0  0  0  0  0  0  0  0  0  0  0  0
   -2.2434   -3.4053    2.0210 C   0  0  0  0  0  0  0  0  0  0  0  0
   -3.6003   -2.7158    1.9796 C   0  0  0  0  0  0  0  0  0  0  0  0
   -4.1313   -3.0272    0.5861 C   0  0  0  0  0  0  0  0  0  0  0  0
   -1.6912    0.1308   -1.8346 N   0  0  0  0  0  0  0  0  0  0  0  0
   -1.0283    1.0848   -0.9090 C   0  0  0  0  0  0  0  0  0  0  0  0
   -2.0802    2.1412   -0.3583 C   0  0  0  0  0  0  0  0  0  0  0  0
   -2.1742    1.9716    1.1928 C   0  0  0  0  0  0  0  0  0  0  0  0
   -0.8802    1.6051    2.0275 C   0  0  0  0  0  0  0  0  0  0  0  0
    0.5893    1.8279    1.4928 C   0  0  0  0  0  0  0  0  0  0  0  0
    0.8639    3.0873    0.8057 N   0  0  0  0  0  0  0  0  0  0  0  0
   -0.3992    3.5089    0.2650 C   0  0  0  0  0  0  0  0  0  0  0  0
   -0.0066    4.5235   -0.5864 C   0  0  0  0  0  0  0  0  0  0  0  0
   -1.6849    3.7538   -1.0205 C   0  0  0  0  0  0  0  0  0  0  0  0
   -1.3651    3.2851   -2.4400 C   0  0  0  0  0  0  0  0  0  0  0  0
   -0.3477    2.1521   -3.0777 C   0  0  0  0  0  0  0  0  0  0  0  0
    0.1571    1.8844   -1.5677 C   0  0  0  0  0  0  0  0  0  0  0  0
   -0.1760    3.3389   -1.6332 C   0  0  0  0  0  0  0  0  0  0  0  0
    1.2328    3.0155   -0.6330 C   0  0  0  0  0  0  0  0  0  0  0  0
    3.8917    0.5265    4.1274 H   0  0  0  0  0  0  0  0  0  0  0  0
    3.7187    1.8905    3.0043 H   0  0  0  0  0  0  0  0  0  0  0  0
    5.1251    0.7617    1.3374 H   0  0  0  0  0  0  0  0  0  0  0  0
    5.4258   -0.5870    2.4354 H   0  0  0  0  0  0  0  0  0  0  0  0
    3.1100   -1.1309    2.3908 H   0  0  0  0  0  0  0  0  0  0  0  0
    4.4073   -2.0442    0.5921 H   0  0  0  0  0  0  0  0  0  0  0  0
    4.1079   -0.5539   -0.3242 H   0  0  0  0  0  0  0  0  0  0  0  0
    1.6281   -1.0002   -0.1468 H   0  0  0  0  0  0  0  0  0  0  0  0
    1.9777   -2.5513    0.6025 H   0  0  0  0  0  0  0  0  0  0  0  0
    3.2261   -3.3053   -1.3748 H   0  0  0  0  0  0  0  0  0  0  0  0
    3.0750   -1.7271   -2.1480 H   0  0  0  0  0  0  0  0  0  0  0  0
    0.7323   -3.5562   -1.4318 H   0  0  0  0  0  0  0  0  0  0  0  0
    1.4910   -3.4870   -3.0127 H   0  0  0  0  0  0  0  0  0  0  0  0
    0.6947   -0.7872   -2.0966 H   0  0  0  0  0  0  0  0  0  0  0  0
    0.4429   -1.5685   -3.6417 H   0  0  0  0  0  0  0  0  0  0  0  0
   -1.5282   -2.2529   -3.0657 H   0  0  0  0  0  0  0  0  0  0  0  0
   -3.0454   -3.4823   -1.2323 H   0  0  0  0  0  0  0  0  0  0  0  0
   -1.6704   -4.5957    0.3216 H   0  0  0  0  0  0  0  0  0  0  0  0
   -0.8113   -3.0578    0.4227 H   0  0  0  0  0  0  0  0  0  0  0  0
   -1.5276   -2.8358    2.6234 H   0  0  0  0  0  0  0  0  0  0  0  0
   -2.3326   -4.4023    2.4697 H   0  0  0  0  0  0  0  0  0  0  0  0
   -4.2696   -3.0670    2.7697 H   0  0  0  0  0  0  0  0  0  0  0  0
   -3.4713   -1.6333    2.1057 H   0  0  0  0  0  0  0  0  0  0  0  0
   -4.9267   -2.3338    0.2954 H   0  0  0  0  0  0  0  0  0  0  0  0
   -4.5348   -4.0455    0.5607 H   0  0  0  0  0  0  0  0  0  0  0  0
   -2.6572    0.4350   -1.9186 H   0  0  0  0  0  0  0  0  0  0  0  0
   -0.6303    0.4523   -0.1211 H   0  0  0  0  0  0  0  0  0  0  0  0
   -3.0843    1.9507   -0.7642 H   0  0  0  0  0  0  0  0  0  0  0  0
   -2.8994    1.1693    1.3858 H   0  0  0  0  0  0  0  0  0  0  0  0
   -2.6453    2.8678    1.6202 H   0  0  0  0  0  0  0  0  0  0  0  0
   -0.9564    0.5402    2.2848 H   0  0  0  0  0  0  0  0  0  0  0  0
   -0.9673    2.1362    2.9847 H   0  0  0  0  0  0  0  0  0  0  0  0
    0.9484    0.9688    0.9200 H   0  0  0  0  0  0  0  0  0  0  0  0
    1.2364    1.8173    2.3815 H   0  0  0  0  0  0  0  0  0  0  0  0
   -1.0303    4.0796    0.9776 H   0  0  0  0  0  0  0  0  0  0  0  0
    0.0760    5.4720   -0.0455 H   0  0  0  0  0  0  0  0  0  0  0  0
   -2.4833    4.5008   -0.9137 H   0  0  0  0  0  0  0  0  0  0  0  0
   -1.5298    4.1084   -3.1458 H   0  0  0  0  0  0  0  0  0  0  0  0
   -0.8432    1.3455   -3.6274 H   0  0  0  0  0  0  0  0  0  0  0  0
    0.4143    2.5279   -3.7801 H   0  0  0  0  0  0  0  0  0  0  0  0
    0.5841    3.9412   -2.2998 H   0  0  0  0  0  0  0  0  0  0  0  0
    2.2679    3.2237   -0.9258 H   0  0  0  0  0  0  0  0  0  0  0  0
  2  1  1  0  0  0  0
  3  2  1  0  0  0  0
  4  3  1  0  0  0  0
  5  4  1  0  0  0  0
  6  5  1  0  0  0  0
  7  6  1  0  0  0  0
  8  7  1  0  0  0  0
  9  8  1  0  0  0  0
 10  9  1  0  0  0  0
 11 10  1  0  0  0  0
 12 11  2  0  0  0  0
 13 12  1  0  0  0  0
 14 13  1  0  0  0  0
 15 14  1  0  0  0  0
 16 15  1  0  0  0  0
 17 16  1  0  0  0  0
 17 13  1  0  0  0  0
 18 11  1  0  0  0  0
 19 18  1  0  0  0  0
 20 19  1  0  0  0  0
 21 20  1  0  0  0  0
 22 21  1  0  0  0  0
 23 22  1  0  0  0  0
 24 23  1  0  0  0  0
 25 24  1  0  0  0  0
 26 25  1  0  0  0  0
 27 26  1  0  0  0  0
 27 20  1  0  0  0  0
 28 27  1  0  0  0  0
 29 28  1  0  0  0  0
 30 29  1  0  0  0  0
 30 19  1  0  0  0  0
 31 30  1  0  0  0  0
 31 28  1  0  0  0  0
 31 25  1  0  0  0  0
 32 30  1  0  0  0  0
 32 26  1  0  0  0  0
 32 24  1  0  0  0  0
  2 33  1  0  0  0  0
  2 34  1  0  0  0  0
  3 35  1  0  0  0  0
  3 36  1  0  0  0  0
  4 37  1  0  0  0  0
  5 38  1  0  0  0  0
  5 39  1  0  0  0  0
  6 40  1  0  0  0  0
  6 41  1  0  0  0  0
  7 42  1  0  0  0  0
  7 43  1  0  0  0  0
  8 44  1  0  0  0  0
  8 45  1  0  0  0  0
  9 46  1  0  0  0  0
  9 47  1  0  0  0  0
 10 48  1  0  0  0  0
 13 49  1  0  0  0  0
 14 50  1  0  0  0  0
 14 51  1  0  0  0  0
 15 52  1  0  0  0  0
 15 53  1  0  0  0  0
 16 54  1  0  0  0  0
 16 55  1  0  0  0  0
 17 56  1  0  0  0  0
 17 57  1  0  0  0  0
 18 58  1  0  0  0  0
 19 59  1  0  0  0  0
 20 60  1  0  0  0  0
 21 61  1  0  0  0  0
 21 62  1  0  0  0  0
 22 63  1  0  0  0  0
 22 64  1  0  0  0  0
 23 65  1  0  0  0  0
 23 66  1  0  0  0  0
 25 67  1  0  0  0  0
 26 68  1  0  0  0  0
 27 69  1  0  0  0  0
 28 70  1  0  0  0  0
 29 71  1  0  0  0  0
 29 72  1  0  0  0  0
 31 73  1  0  0  0  0
 32 74  1  0  0  0  0
M  CHG  1   1  -1
M  RAD  1   1   2
M  END
>  <energy>
420.62010066057894

$$$$
