CC(=O)OC1CCC2(C)C(=C3COC2(C)O3)C1(C)CCl
                    3D

 41 43  0  0  0  0  0  0  0  0999 V2000
    4.1906   -0.4299   -0.4488 C   0  0  0  0  0  0  0  0  0  0  0  0
    3.1000   -0.5107   -1.4714 C   0  0  0  0  0  0  0  0  0  0  0  0
    3.3012   -0.9517   -2.5975 O   0  0  0  0  0  0  0  0  0  0  0  0
    1.8645   -0.0919   -1.1186 O   0  0  0  0  0  0  0  0  0  0  0  0
    1.4947    0.4818    0.1614 C   0  0  0  0  0  0  0  0  0  0  0  0
    1.0763   -0.6670    1.0893 C   0  0  0  0  0  0  0  0  0  0  0  0
    0.0199   -1.5568    0.4260 C   0  0  0  0  0  0  0  0  0  0  0  0
   -1.1089   -0.7655   -0.2780 C   0  0  0  0  0  0  0  0  0  0  0  0
   -1.1927   -1.1260   -1.7721 C   0  0  0  0  0  0  0  0  0  0  0  0
   -1.0260    0.7566   -0.0831 C   0  0  0  0  0  0  0  0  0  0  0  0
   -2.2222    1.0638    0.4790 C   0  0  0  0  0  0  0  0  0  0  0  0
   -2.3049    0.7177    1.9552 C   0  0  0  0  0  0  0  0  0  0  0  0
   -2.3762   -0.7302    1.8747 O   0  0  0  0  0  0  0  0  0  0  0  0
   -2.4995   -0.9512    0.4400 C   0  0  0  0  0  0  0  0  0  0  0  0
   -3.2344   -2.2471    0.1716 C   0  0  0  0  0  0  0  0  0  0  0  0
   -3.2208    0.1899   -0.0572 O   0  0  0  0  0  0  0  0  0  0  0  0
    0.3139    1.4933   -0.0621 C   0  0  0  0  0  0  0  0  0  0  0  0
    0.3337    2.5581    1.0635 C   0  0  0  0  0  0  0  0  0  0  0  0
    0.4534    2.2318   -1.4276 C   0  0  0  0  0  0  0  0  0  0  0  0
    1.9968    3.1217   -1.6153 Cl  0  0  0  0  0  0  0  0  0  0  0  0
    5.1190   -0.7917   -0.9046 H   0  0  0  0  0  0  0  0  0  0  0  0
    4.3560    0.6030   -0.1351 H   0  0  0  0  0  0  0  0  0  0  0  0
    3.9748   -1.0789    0.4011 H   0  0  0  0  0  0  0  0  0  0  0  0
    2.3460    1.0154    0.5925 H   0  0  0  0  0  0  0  0  0  0  0  0
    1.9385   -1.3003    1.3224 H   0  0  0  0  0  0  0  0  0  0  0  0
    0.7092   -0.2776    2.0469 H   0  0  0  0  0  0  0  0  0  0  0  0
    0.5285   -2.2020   -0.3039 H   0  0  0  0  0  0  0  0  0  0  0  0
   -0.3769   -2.2521    1.1743 H   0  0  0  0  0  0  0  0  0  0  0  0
   -1.3700   -2.1992   -1.9044 H   0  0  0  0  0  0  0  0  0  0  0  0
   -2.0031   -0.5942   -2.2814 H   0  0  0  0  0  0  0  0  0  0  0  0
   -0.2669   -0.8864   -2.3023 H   0  0  0  0  0  0  0  0  0  0  0  0
   -1.4540    1.0007    2.5728 H   0  0  0  0  0  0  0  0  0  0  0  0
   -3.2291    1.0914    2.4086 H   0  0  0  0  0  0  0  0  0  0  0  0
   -2.6204   -3.1124    0.4387 H   0  0  0  0  0  0  0  0  0  0  0  0
   -3.5420   -2.3299   -0.8758 H   0  0  0  0  0  0  0  0  0  0  0  0
   -4.1471   -2.2995    0.7747 H   0  0  0  0  0  0  0  0  0  0  0  0
   -0.5118    3.2520    0.9810 H   0  0  0  0  0  0  0  0  0  0  0  0
    1.2447    3.1633    1.0391 H   0  0  0  0  0  0  0  0  0  0  0  0
    0.3044    2.1029    2.0565 H   0  0  0  0  0  0  0  0  0  0  0  0
    0.3855    1.5401   -2.2723 H   0  0  0  0  0  0  0  0  0  0  0  0
   -0.3448    2.9689   -1.5579 H   0  0  0  0  0  0  0  0  0  0  0  0
  2  1  1  0  0  0  0
  3  2  2  0  0  0  0
  4  2  1  0  0  0  0
  5  4  1  0  0  0  0
  6  5  1  0  0  0  0
  7  6  1  0  0  0  0
  8  7  1  0  0  0  0
  9  8  1  0  0  0  0
 10  8  1  0  0  0  0
 11 10  2  0  0  0  0
 12 11  1  0  0  0  0
 13 12  1  0  0  0  0
 14 13  1  0  0  0  0
 14  8  1  0  0  0  0
 15 14  1  0  0  0  0
 16 14  1  0  0  0  0
 16 11  1  0  0  0  0
 17 10  1  0  0  0  0
 17  5  1  0  0  0  0
 18 17  1  0  0  0  0
 19 17  1  0  0  0  0
 20 19  1  0  0  0  0
  1 21  1  0  0  0  0
  1 22  1  0  0  0  0
  1 23  1  0  0  0  0
  5 24  1  0  0  0  0
  6 25  1  0  0  0  0
  6 26  1  0  0  0  0
  7 27  1  0  0  0  0
  7 28  1  0  0  0  0
  9 29  1  0  0  0  0
  9 30  1  0  0  0  0
  9 31  1  0  0  0  0
 12 32  1  0  0  0  0
 12 33  1  0  0  0  0
 15 34  1  0  0  0  0
 15 35  1  0  0  0  0
 15 36  1  0  0  0  0
 18 37  1  0  0  0  0
 18 38  1  0  0  0  0
 18 39  1  0  0  0  0
 19 40  1  0  0  0  0
 19 41  1  0  0  0  0
M  END
>  <energy>
142.94356711633449

$$$$
