CCC1(C)C2OC3N=C4CCCN(C4)C(C#N)C1(C#N)C32Cl
                    3D

 41 44  0  0  0  0  0  0  0  0999 V2000
   -4.4232    0.3928   -0.2068 C   0  0  0  0  0  0  0  0  0  0  0  0
   -3.1389    0.3228   -1.0246 C   0  0  0  0  0  0  0  0  0  0  0  0
   -1.8412    0.1956   -0.1655 C   0  0  0  0  0  0  0  0  0  0  0  0
   -1.7722    1.3624    0.8229 C   0  0  0  0  0  0  0  0  0  0  0  0
   -1.7414   -1.2138    0.4780 C   0  0  0  0  0  0  0  0  0  0  0  0
   -0.7613   -1.4699    1.5147 O   0  0  0  0  0  0  0  0  0  0  0  0
   -0.0274   -2.3072    0.6043 C   0  0  0  0  0  0  0  0  0  0  0  0
    1.4111   -2.2245    0.5118 N   0  0  0  0  0  0  0  0  0  0  0  0
    2.0792   -1.2091    0.9468 C   0  0  0  0  0  0  0  0  0  0  0  0
    3.5624   -1.1404    0.6329 C   0  0  0  0  0  0  0  0  0  0  0  0
    4.0330    0.3176    0.6943 C   0  0  0  0  0  0  0  0  0  0  0  0
    2.9895    1.3438    0.1789 C   0  0  0  0  0  0  0  0  0  0  0  0
    1.5514    1.0048    0.4449 N   0  0  0  0  0  0  0  0  0  0  0  0
    1.5086    0.0464    1.5353 C   0  0  0  0  0  0  0  0  0  0  0  0
    0.8578    0.6713   -0.8540 C   0  0  0  0  0  0  0  0  0  0  0  0
    0.6268    2.0140   -1.5129 C   0  0  0  0  0  0  0  0  0  0  0  0
    0.4469    3.0513   -2.0026 N   0  0  0  0  0  0  0  0  0  0  0  0
   -0.4889   -0.1617   -1.0013 C   0  0  0  0  0  0  0  0  0  0  0  0
   -0.7290   -0.1050   -2.4726 C   0  0  0  0  0  0  0  0  0  0  0  0
   -0.8842   -0.0569   -3.6210 N   0  0  0  0  0  0  0  0  0  0  0  0
   -0.7607   -1.7162   -0.6002 C   0  0  0  0  0  0  0  0  0  0  0  0
   -1.3727   -2.9269   -1.7729 Cl  0  0  0  0  0  0  0  0  0  0  0  0
   -5.2905    0.3590   -0.8749 H   0  0  0  0  0  0  0  0  0  0  0  0
   -4.5070   -0.4411    0.4954 H   0  0  0  0  0  0  0  0  0  0  0  0
   -4.4896    1.3256    0.3610 H   0  0  0  0  0  0  0  0  0  0  0  0
   -3.2354   -0.5311   -1.7046 H   0  0  0  0  0  0  0  0  0  0  0  0
   -3.0765    1.2232   -1.6484 H   0  0  0  0  0  0  0  0  0  0  0  0
   -1.8399    2.3212    0.2980 H   0  0  0  0  0  0  0  0  0  0  0  0
   -0.8587    1.3818    1.4101 H   0  0  0  0  0  0  0  0  0  0  0  0
   -2.5895    1.3172    1.5498 H   0  0  0  0  0  0  0  0  0  0  0  0
   -2.6595   -1.7843    0.6410 H   0  0  0  0  0  0  0  0  0  0  0  0
   -0.3006   -3.3529    0.8073 H   0  0  0  0  0  0  0  0  0  0  0  0
    4.1156   -1.7624    1.3434 H   0  0  0  0  0  0  0  0  0  0  0  0
    3.7226   -1.5404   -0.3749 H   0  0  0  0  0  0  0  0  0  0  0  0
    4.9703    0.4297    0.1371 H   0  0  0  0  0  0  0  0  0  0  0  0
    4.2753    0.5605    1.7375 H   0  0  0  0  0  0  0  0  0  0  0  0
    3.1794    1.5231   -0.8870 H   0  0  0  0  0  0  0  0  0  0  0  0
    3.1919    2.3036    0.6708 H   0  0  0  0  0  0  0  0  0  0  0  0
    0.5406   -0.0155    1.9984 H   0  0  0  0  0  0  0  0  0  0  0  0
    2.1359    0.3706    2.3762 H   0  0  0  0  0  0  0  0  0  0  0  0
    1.5900    0.1212   -1.4664 H   0  0  0  0  0  0  0  0  0  0  0  0
  2  1  1  0  0  0  0
  3  2  1  0  0  0  0
  4  3  1  0  0  0  0
  5  3  1  0  0  0  0
  6  5  1  0  0  0  0
  7  6  1  0  0  0  0
  8  7  1  0  0  0  0
  9  8  2  0  0  0  0
 10  9  1  0  0  0  0
 11 10  1  0  0  0  0
 12 11  1  0  0  0  0
 13 12  1  0  0  0  0
 14 13  1  0  0  0  0
 14  9  1  0  0  0  0
 15 13  1  0  0  0  0
 16 15  1  0  0  0  0
 17 16  3  0  0  0  0
 18 15  1  0  0  0  0
 18  3  1  0  0  0  0
 19 18  1  0  0  0  0
 20 19  3  0  0  0  0
 21 18  1  0  0  0  0
 21  7  1  0  0  0  0
 21  5  1  0  0  0  0
 22 21  1  0  0  0  0
  1 23  1  0  0  0  0
  1 24  1  0  0  0  0
  1 25  1  0  0  0  0
  2 26  1  0  0  0  0
  2 27  1  0  0  0  0
  4 28  1  0  0  0  0
  4 29  1  0  0  0  0
  4 30  1  0  0  0  0
  5 31  1  0  0  0  0
  7 32  1  0  0  0  0
 10 33  1  0  0  0  0
 10 34  1  0  0  0  0
 11 35  1  0  0  0  0
 11 36  1  0  0  0  0
 12 37  1  0  0  0  0
 12 38  1  0  0  0  0
 14 39  1  0  0  0  0
 14 40  1  0  0  0  0
 15 41  1  0  0  0  0
M  END
>  <energy>
100.12216436861249

$$$$
