O=C1C2=CSC3NC(C=C13)C(c1ccc(Br)cc1)C(SCCCSCc1coc(=O)[nH]1)=N2
                    3D

 52 56  0  0  0  0  0  0  0  0999 V2000
   -4.3757   -0.5725    0.2268 O   0  0  0  0  0  0  0  0  0  0  0  0
   -3.4464   -0.8881   -0.5027 C   0  0  0  0  0  0  0  0  0  0  0  0
   -2.8118   -2.1028   -0.3690 C   0  0  0  0  0  0  0  0  0  0  0  0
   -3.3924   -2.7441   -1.4093 C   0  0  0  0  0  0  0  0  0  0  0  0
   -4.6214   -1.6891   -2.5969 S   0  0  0  0  0  0  0  0  0  0  0  0
   -3.8171    0.1872   -2.4028 C   0  0  0  0  0  0  0  0  0  0  0  0
   -4.0975    1.2948   -1.3406 N   0  0  0  0  0  0  0  0  0  0  0  0
   -2.7103    1.4678   -0.4452 C   0  0  0  0  0  0  0  0  0  0  0  0
   -1.8125    0.7628   -1.3788 C   0  0  0  0  0  0  0  0  0  0  0  0
   -2.6315   -0.2389   -1.6994 C   0  0  0  0  0  0  0  0  0  0  0  0
   -2.2936    0.7407    1.0497 C   0  0  0  0  0  0  0  0  0  0  0  0
   -1.2660    1.7135    1.6748 C   0  0  0  0  0  0  0  0  0  0  0  0
   -0.0255    1.9675    1.0644 C   0  0  0  0  0  0  0  0  0  0  0  0
    0.8905    2.8431    1.6500 C   0  0  0  0  0  0  0  0  0  0  0  0
    0.5726    3.4747    2.8488 C   0  0  0  0  0  0  0  0  0  0  0  0
    1.8247    4.6391    3.6538 Br  0  0  0  0  0  0  0  0  0  0  0  0
   -0.6552    3.2468    3.4622 C   0  0  0  0  0  0  0  0  0  0  0  0
   -1.5728    2.3729    2.8769 C   0  0  0  0  0  0  0  0  0  0  0  0
   -1.7306   -0.9267    1.3016 C   0  0  0  0  0  0  0  0  0  0  0  0
   -0.9120   -1.1733    2.8797 S   0  0  0  0  0  0  0  0  0  0  0  0
    0.8402   -1.1280    2.4244 C   0  0  0  0  0  0  0  0  0  0  0  0
    1.2496   -2.1120    1.3321 C   0  0  0  0  0  0  0  0  0  0  0  0
    2.7332   -1.9360    1.0081 C   0  0  0  0  0  0  0  0  0  0  0  0
    3.2590   -3.0337   -0.3460 S   0  0  0  0  0  0  0  0  0  0  0  0
    2.5816   -2.1441   -1.7854 C   0  0  0  0  0  0  0  0  0  0  0  0
    3.5900   -1.2007   -2.3387 C   0  0  0  0  0  0  0  0  0  0  0  0
    4.3762   -1.2989   -3.4058 C   0  0  0  0  0  0  0  0  0  0  0  0
    5.1974   -0.1899   -3.6246 O   0  0  0  0  0  0  0  0  0  0  0  0
    4.8287    0.6327   -2.5707 C   0  0  0  0  0  0  0  0  0  0  0  0
    5.2962    1.7381   -2.3458 O   0  0  0  0  0  0  0  0  0  0  0  0
    3.8551    0.0217   -1.8217 N   0  0  0  0  0  0  0  0  0  0  0  0
   -1.9288   -2.0943    0.6672 N   0  0  0  0  0  0  0  0  0  0  0  0
   -3.2276   -3.7686   -1.7089 H   0  0  0  0  0  0  0  0  0  0  0  0
   -3.6396    0.5933   -3.4034 H   0  0  0  0  0  0  0  0  0  0  0  0
   -4.1982    2.1705   -1.8530 H   0  0  0  0  0  0  0  0  0  0  0  0
   -2.5381    2.5499   -0.4084 H   0  0  0  0  0  0  0  0  0  0  0  0
   -1.3204    1.3615   -2.1405 H   0  0  0  0  0  0  0  0  0  0  0  0
   -3.1975    0.8154    1.6722 H   0  0  0  0  0  0  0  0  0  0  0  0
    0.2593    1.4668    0.1431 H   0  0  0  0  0  0  0  0  0  0  0  0
    1.8501    3.0195    1.1705 H   0  0  0  0  0  0  0  0  0  0  0  0
   -0.9080    3.7396    4.3978 H   0  0  0  0  0  0  0  0  0  0  0  0
   -2.5247    2.2000    3.3766 H   0  0  0  0  0  0  0  0  0  0  0  0
    1.4100   -1.3415    3.3363 H   0  0  0  0  0  0  0  0  0  0  0  0
    1.1062   -0.1135    2.1318 H   0  0  0  0  0  0  0  0  0  0  0  0
    0.6574   -1.9337    0.4311 H   0  0  0  0  0  0  0  0  0  0  0  0
    1.0571   -3.1394    1.6657 H   0  0  0  0  0  0  0  0  0  0  0  0
    3.3320   -2.1862    1.8904 H   0  0  0  0  0  0  0  0  0  0  0  0
    2.9612   -0.8966    0.7501 H   0  0  0  0  0  0  0  0  0  0  0  0
    1.6543   -1.6207   -1.5326 H   0  0  0  0  0  0  0  0  0  0  0  0
    2.3208   -2.8967   -2.5379 H   0  0  0  0  0  0  0  0  0  0  0  0
    4.4903   -2.0980   -4.1186 H   0  0  0  0  0  0  0  0  0  0  0  0
    3.4618    0.4478   -0.9992 H   0  0  0  0  0  0  0  0  0  0  0  0
  2  1  2  0  0  0  0
  3  2  1  0  0  0  0
  4  3  2  0  0  0  0
  5  4  1  0  0  0  0
  6  5  1  0  0  0  0
  7  6  1  0  0  0  0
  8  7  1  0  0  0  0
  9  8  1  0  0  0  0
 10  9  2  0  0  0  0
 10  2  1  0  0  0  0
 10  6  1  0  0  0  0
 11  8  1  0  0  0  0
 12 11  1  0  0  0  0
 13 12  2  0  0  0  0
 14 13  1  0  0  0  0
 15 14  2  0  0  0  0
 16 15  1  0  0  0  0
 17 15  1  0  0  0  0
 18 17  2  0  0  0  0
 18 12  1  0  0  0  0
 19 11  1  0  0  0  0
 20 19  1  0  0  0  0
 21 20  1  0  0  0  0
 22 21  1  0  0  0  0
 23 22  1  0  0  0  0
 24 23  1  0  0  0  0
 25 24  1  0  0  0  0
 26 25  1  0  0  0  0
 27 26  2  0  0  0  0
 28 27  1  0  0  0  0
 29 28  1  0  0  0  0
 30 29  2  0  0  0  0
 31 29  1  0  0  0  0
 31 26  1  0  0  0  0
 32 19  2  0  0  0  0
 32  3  1  0  0  0  0
  4 33  1  0  0  0  0
  6 34  1  0  0  0  0
  7 35  1  0  0  0  0
  8 36  1  0  0  0  0
  9 37  1  0  0  0  0
 11 38  1  0  0  0  0
 13 39  1  0  0  0  0
 14 40  1  0  0  0  0
 17 41  1  0  0  0  0
 18 42  1  0  0  0  0
 21 43  1  0  0  0  0
 21 44  1  0  0  0  0
 22 45  1  0  0  0  0
 22 46  1  0  0  0  0
 23 47  1  0  0  0  0
 23 48  1  0  0  0  0
 25 49  1  0  0  0  0
 25 50  1  0  0  0  0
 27 51  1  0  0  0  0
 31 52  1  0  0  0  0
M  END
>  <energy>
353.35097774844155

$$$$
