OC12CC3C4C5C4C4OC36C5C1C426
                    3D

 23 29  0  0  0  0  0  0  0  0999 V2000
    3.1746    0.5674    0.1049 O   0  0  0  0  0  0  0  0  0  0  0  0
    1.8102    0.1726    0.1454 C   0  0  0  0  0  0  0  0  0  0  0  0
    1.3481   -0.9157   -0.7719 C   0  0  0  0  0  0  0  0  0  0  0  0
   -0.0090   -1.0723   -0.1399 C   0  0  0  0  0  0  0  0  0  0  0  0
   -1.3006   -1.3585   -0.6280 C   0  0  0  0  0  0  0  0  0  0  0  0
   -1.9363   -0.6531    0.5142 C   0  0  0  0  0  0  0  0  0  0  0  0
   -1.6812   -0.0984   -1.2178 C   0  0  0  0  0  0  0  0  0  0  0  0
   -0.4589    1.1749   -1.2114 C   0  0  0  0  0  0  0  0  0  0  0  0
   -1.0987    1.8596   -0.1498 O   0  0  0  0  0  0  0  0  0  0  0  0
   -0.4528    0.6631    0.4566 C   0  0  0  0  0  0  0  0  0  0  0  0
   -0.7249    0.1068    1.6957 C   0  0  0  0  0  0  0  0  0  0  0  0
    1.0116    0.3663    1.4818 C   0  0  0  0  0  0  0  0  0  0  0  0
    0.7757    1.2270    0.1606 C   0  0  0  0  0  0  0  0  0  0  0  0
    3.2944    1.4677    0.4599 H   0  0  0  0  0  0  0  0  0  0  0  0
    1.9453   -1.8284   -0.6884 H   0  0  0  0  0  0  0  0  0  0  0  0
    1.3258   -0.6052   -1.8205 H   0  0  0  0  0  0  0  0  0  0  0  0
    0.1651   -1.7342    0.7368 H   0  0  0  0  0  0  0  0  0  0  0  0
   -1.5693   -2.3369   -0.9652 H   0  0  0  0  0  0  0  0  0  0  0  0
   -2.9364   -0.6905    0.9052 H   0  0  0  0  0  0  0  0  0  0  0  0
   -2.5793    0.2002   -1.7335 H   0  0  0  0  0  0  0  0  0  0  0  0
   -0.2976    1.7911   -2.0886 H   0  0  0  0  0  0  0  0  0  0  0  0
   -1.1915    0.7907    2.4121 H   0  0  0  0  0  0  0  0  0  0  0  0
    1.3858    0.9059    2.3419 H   0  0  0  0  0  0  0  0  0  0  0  0
  2  1  1  0  0  0  0
  3  2  1  0  0  0  0
  4  3  1  0  0  0  0
  5  4  1  0  0  0  0
  6  5  1  0  0  0  0
  7  6  1  0  0  0  0
  7  5  1  0  0  0  0
  8  7  1  0  0  0  0
  9  8  1  0  0  0  0
 10  9  1  0  0  0  0
 10  4  1  0  0  0  0
 11 10  1  0  0  0  0
 11  6  1  0  0  0  0
 12 11  1  0  0  0  0
 12  2  1  0  0  0  0
 13 12  1  0  0  0  0
 13  8  1  0  0  0  0
 13  2  1  0  0  0  0
 13 10  1  0  0  0  0
  1 14  1  0  0  0  0
  3 15  1  0  0  0  0
  3 16  1  0  0  0  0
  4 17  1  0  0  0  0
  5 18  1  0  0  0  0
  6 19  1  0  0  0  0
  7 20  1  0  0  0  0
  8 21  1  0  0  0  0
 11 22  1  0  0  0  0
 12 23  1  0  0  0  0
M  END
>  <energy>
462.5684242605746

$$$$
