CC(=O)N(C)C(=O)C12NC3CC1C32
                    3D

 25 27  0  0  0  0  0  0  0  0999 V2000
   -1.9634   -1.4791    0.1295 C   0  0  0  0  0  0  0  0  0  0  0  0
   -2.4138   -0.1120   -0.3317 C   0  0  0  0  0  0  0  0  0  0  0  0
   -3.5464    0.0286   -0.7961 O   0  0  0  0  0  0  0  0  0  0  0  0
   -1.5185    0.9362   -0.1748 N   0  0  0  0  0  0  0  0  0  0  0  0
   -2.0141    2.2646   -0.4622 C   0  0  0  0  0  0  0  0  0  0  0  0
   -0.4597    0.8729    0.7155 C   0  0  0  0  0  0  0  0  0  0  0  0
   -0.4139    1.4635    1.7912 O   0  0  0  0  0  0  0  0  0  0  0  0
    0.6794    0.0654    0.2351 C   0  0  0  0  0  0  0  0  0  0  0  0
    1.1109    0.1355   -1.1760 N   0  0  0  0  0  0  0  0  0  0  0  0
    2.5061   -0.1325   -0.7242 C   0  0  0  0  0  0  0  0  0  0  0  0
    2.5718   -1.5183    0.0710 C   0  0  0  0  0  0  0  0  0  0  0  0
    1.5658   -0.8823    0.9828 C   0  0  0  0  0  0  0  0  0  0  0  0
    2.0863    0.4320    0.5545 C   0  0  0  0  0  0  0  0  0  0  0  0
   -2.7747   -2.1937   -0.0326 H   0  0  0  0  0  0  0  0  0  0  0  0
   -1.7276   -1.4800    1.1966 H   0  0  0  0  0  0  0  0  0  0  0  0
   -1.1092   -1.8213   -0.4619 H   0  0  0  0  0  0  0  0  0  0  0  0
   -2.7586    2.5447    0.2868 H   0  0  0  0  0  0  0  0  0  0  0  0
   -1.1901    2.9892   -0.4499 H   0  0  0  0  0  0  0  0  0  0  0  0
   -2.4831    2.2717   -1.4526 H   0  0  0  0  0  0  0  0  0  0  0  0
    0.7100   -0.6274   -1.7190 H   0  0  0  0  0  0  0  0  0  0  0  0
    3.3345    0.2274   -1.3138 H   0  0  0  0  0  0  0  0  0  0  0  0
    3.5501   -1.7381    0.5066 H   0  0  0  0  0  0  0  0  0  0  0  0
    2.2306   -2.3856   -0.5028 H   0  0  0  0  0  0  0  0  0  0  0  0
    1.5685   -1.1237    2.0298 H   0  0  0  0  0  0  0  0  0  0  0  0
    2.4589    1.2625    1.0981 H   0  0  0  0  0  0  0  0  0  0  0  0
  2  1  1  0  0  0  0
  3  2  2  0  0  0  0
  4  2  1  0  0  0  0
  5  4  1  0  0  0  0
  6  4  1  0  0  0  0
  7  6  2  0  0  0  0
  8  6  1  0  0  0  0
  9  8  1  0  0  0  0
 10  9  1  0  0  0  0
 11 10  1  0  0  0  0
 12 11  1  0  0  0  0
 12  8  1  0  0  0  0
 13 12  1  0  0  0  0
 13 10  1  0  0  0  0
 13  8  1  0  0  0  0
  1 14  1  0  0  0  0
  1 15  1  0  0  0  0
  1 16  1  0  0  0  0
  5 17  1  0  0  0  0
  5 18  1  0  0  0  0
  5 19  1  0  0  0  0
  9 20  1  0  0  0  0
 10 21  1  0  0  0  0
 11 22  1  0  0  0  0
 11 23  1  0  0  0  0
 12 24  1  0  0  0  0
 13 25  1  0  0  0  0
M  END
>  <energy>
40.414917644537738

$$$$
