CC(=O)C1(C)C2C3C4C5C3C(C(=O)NC3CC3)(C52)C41
                    3D

 38 43  0  0  0  0  0  0  0  0999 V2000
    0.4399    2.6783   -0.9530 C   0  0  0  0  0  0  0  0  0  0  0  0
    1.6341    1.7663   -0.8350 C   0  0  0  0  0  0  0  0  0  0  0  0
    2.5266    1.7742   -1.6855 O   0  0  0  0  0  0  0  0  0  0  0  0
    1.7811    0.9657    0.4446 C   0  0  0  0  0  0  0  0  0  0  0  0
    2.2376    1.8067    1.6164 C   0  0  0  0  0  0  0  0  0  0  0  0
    2.4596   -0.3081    0.3171 C   0  0  0  0  0  0  0  0  0  0  0  0
    1.5226   -1.3455    1.6685 C   0  0  0  0  0  0  0  0  0  0  0  0
    2.3884   -1.6846    0.7314 C   0  0  0  0  0  0  0  0  0  0  0  0
    1.6415   -2.4881   -0.2144 C   0  0  0  0  0  0  0  0  0  0  0  0
    0.4664   -2.1358    0.6746 C   0  0  0  0  0  0  0  0  0  0  0  0
    0.2548   -0.9940   -0.3005 C   0  0  0  0  0  0  0  0  0  0  0  0
   -1.0361   -0.4635   -0.8669 C   0  0  0  0  0  0  0  0  0  0  0  0
   -1.0778    0.3579   -1.7832 O   0  0  0  0  0  0  0  0  0  0  0  0
   -2.1789   -0.9276   -0.2330 N   0  0  0  0  0  0  0  0  0  0  0  0
   -3.3686   -0.1378   -0.1218 C   0  0  0  0  0  0  0  0  0  0  0  0
   -4.0035    0.6170   -1.2545 C   0  0  0  0  0  0  0  0  0  0  0  0
   -4.6644   -0.6153   -0.7131 C   0  0  0  0  0  0  0  0  0  0  0  0
    1.5981   -1.1643   -0.9265 C   0  0  0  0  0  0  0  0  0  0  0  0
    1.0020   -0.2391    0.7655 C   0  0  0  0  0  0  0  0  0  0  0  0
   -0.3929    2.3131   -0.3511 H   0  0  0  0  0  0  0  0  0  0  0  0
    0.1222    2.7222   -1.9972 H   0  0  0  0  0  0  0  0  0  0  0  0
    0.7089    3.6787   -0.6121 H   0  0  0  0  0  0  0  0  0  0  0  0
    2.5894    1.2022    2.4586 H   0  0  0  0  0  0  0  0  0  0  0  0
    3.0574    2.4725    1.3199 H   0  0  0  0  0  0  0  0  0  0  0  0
    1.4160    2.4362    1.9796 H   0  0  0  0  0  0  0  0  0  0  0  0
    3.5911   -0.2539    0.2502 H   0  0  0  0  0  0  0  0  0  0  0  0
    1.9211   -1.6224    2.6498 H   0  0  0  0  0  0  0  0  0  0  0  0
    3.2891   -2.0025    1.3006 H   0  0  0  0  0  0  0  0  0  0  0  0
    1.9446   -3.4526   -0.5951 H   0  0  0  0  0  0  0  0  0  0  0  0
   -0.2702   -2.8592    0.9991 H   0  0  0  0  0  0  0  0  0  0  0  0
   -2.0522   -1.6143    0.5003 H   0  0  0  0  0  0  0  0  0  0  0  0
   -3.4333    0.3367    0.8561 H   0  0  0  0  0  0  0  0  0  0  0  0
   -3.5774    0.5640   -2.2492 H   0  0  0  0  0  0  0  0  0  0  0  0
   -4.4288    1.5881   -1.0260 H   0  0  0  0  0  0  0  0  0  0  0  0
   -4.6657   -1.4928   -1.3485 H   0  0  0  0  0  0  0  0  0  0  0  0
   -5.5652   -0.4897   -0.1212 H   0  0  0  0  0  0  0  0  0  0  0  0
    1.8429   -1.0010   -1.9704 H   0  0  0  0  0  0  0  0  0  0  0  0
    0.2799    0.0123    1.6260 H   0  0  0  0  0  0  0  0  0  0  0  0
  2  1  1  0  0  0  0
  3  2  2  0  0  0  0
  4  2  1  0  0  0  0
  5  4  1  0  0  0  0
  6  4  1  0  0  0  0
  7  6  1  0  0  0  0
  8  7  1  0  0  0  0
  9  8  1  0  0  0  0
 10  9  1  0  0  0  0
 10  7  1  0  0  0  0
 11 10  1  0  0  0  0
 12 11  1  0  0  0  0
 13 12  2  0  0  0  0
 14 12  1  0  0  0  0
 15 14  1  0  0  0  0
 16 15  1  0  0  0  0
 17 16  1  0  0  0  0
 17 15  1  0  0  0  0
 18 11  1  0  0  0  0
 18  9  1  0  0  0  0
 18  6  1  0  0  0  0
 19 11  1  0  0  0  0
 19  8  1  0  0  0  0
 19  4  1  0  0  0  0
  1 20  1  0  0  0  0
  1 21  1  0  0  0  0
  1 22  1  0  0  0  0
  5 23  1  0  0  0  0
  5 24  1  0  0  0  0
  5 25  1  0  0  0  0
  6 26  1  0  0  0  0
  7 27  1  0  0  0  0
  8 28  1  0  0  0  0
  9 29  1  0  0  0  0
 10 30  1  0  0  0  0
 14 31  1  0  0  0  0
 15 32  1  0  0  0  0
 16 33  1  0  0  0  0
 16 34  1  0  0  0  0
 17 35  1  0  0  0  0
 17 36  1  0  0  0  0
 18 37  1  0  0  0  0
 19 38  1  0  0  0  0
M  END
>  <energy>
474.97373438302071

$$$$
