NCC1C2C3C4C5CC5C15NC4C5C32
                    3D

 30 35  0  0  0  0  0  0  0  0999 V2000
    3.4807   -1.3416    0.0161 N   0  0  0  0  0  0  0  0  0  0  0  0
    2.2536   -1.0436    0.7604 C   0  0  0  0  0  0  0  0  0  0  0  0
    1.0641   -0.7483   -0.1683 C   0  0  0  0  0  0  0  0  0  0  0  0
    1.1311    0.5956   -0.9525 C   0  0  0  0  0  0  0  0  0  0  0  0
   -0.1199    1.5744   -1.0836 C   0  0  0  0  0  0  0  0  0  0  0  0
   -1.5330    1.2764   -0.4497 C   0  0  0  0  0  0  0  0  0  0  0  0
   -2.0711    0.0682   -1.1386 C   0  0  0  0  0  0  0  0  0  0  0  0
   -2.8883   -0.9939   -0.4617 C   0  0  0  0  0  0  0  0  0  0  0  0
   -1.3814   -1.1183   -0.5547 C   0  0  0  0  0  0  0  0  0  0  0  0
   -0.3040   -0.7702    0.5512 C   0  0  0  0  0  0  0  0  0  0  0  0
   -1.1879   -0.4323    1.7197 N   0  0  0  0  0  0  0  0  0  0  0  0
   -1.3242    1.0058    1.1385 C   0  0  0  0  0  0  0  0  0  0  0  0
    0.1684    0.9085    1.1380 C   0  0  0  0  0  0  0  0  0  0  0  0
    0.8269    1.6283    0.0369 C   0  0  0  0  0  0  0  0  0  0  0  0
    3.3140   -2.1268   -0.6129 H   0  0  0  0  0  0  0  0  0  0  0  0
    3.7158   -0.5493   -0.5812 H   0  0  0  0  0  0  0  0  0  0  0  0
    2.4757   -0.2120    1.4337 H   0  0  0  0  0  0  0  0  0  0  0  0
    2.0183   -1.9068    1.3916 H   0  0  0  0  0  0  0  0  0  0  0  0
    1.0725   -1.5383   -0.9325 H   0  0  0  0  0  0  0  0  0  0  0  0
    1.9755    0.7179   -1.6120 H   0  0  0  0  0  0  0  0  0  0  0  0
   -0.1117    2.3402   -1.8449 H   0  0  0  0  0  0  0  0  0  0  0  0
   -2.1892    2.1425   -0.5824 H   0  0  0  0  0  0  0  0  0  0  0  0
   -2.1287    0.1639   -2.2139 H   0  0  0  0  0  0  0  0  0  0  0  0
   -3.3632   -0.7729    0.4861 H   0  0  0  0  0  0  0  0  0  0  0  0
   -3.4818   -1.6513   -1.0878 H   0  0  0  0  0  0  0  0  0  0  0  0
   -1.0127   -1.9025   -1.2054 H   0  0  0  0  0  0  0  0  0  0  0  0
   -0.7520   -0.5057    2.6381 H   0  0  0  0  0  0  0  0  0  0  0  0
   -1.7740    1.7482    1.8021 H   0  0  0  0  0  0  0  0  0  0  0  0
    0.6810    0.9677    2.1079 H   0  0  0  0  0  0  0  0  0  0  0  0
    1.4453    2.4761    0.2616 H   0  0  0  0  0  0  0  0  0  0  0  0
  2  1  1  0  0  0  0
  3  2  1  0  0  0  0
  4  3  1  0  0  0  0
  5  4  1  0  0  0  0
  6  5  1  0  0  0  0
  7  6  1  0  0  0  0
  8  7  1  0  0  0  0
  9  8  1  0  0  0  0
  9  7  1  0  0  0  0
 10  9  1  0  0  0  0
 10  3  1  0  0  0  0
 11 10  1  0  0  0  0
 12 11  1  0  0  0  0
 12  6  1  0  0  0  0
 13 12  1  0  0  0  0
 13 10  1  0  0  0  0
 14 13  1  0  0  0  0
 14  5  1  0  0  0  0
 14  4  1  0  0  0  0
  1 15  1  0  0  0  0
  1 16  1  0  0  0  0
  2 17  1  0  0  0  0
  2 18  1  0  0  0  0
  3 19  1  0  0  0  0
  4 20  1  0  0  0  0
  5 21  1  0  0  0  0
  6 22  1  0  0  0  0
  7 23  1  0  0  0  0
  8 24  1  0  0  0  0
  8 25  1  0  0  0  0
  9 26  1  0  0  0  0
 11 27  1  0  0  0  0
 12 28  1  0  0  0  0
 13 29  1  0  0  0  0
 14 30  1  0  0  0  0
M  END
>  <energy>
224.03350831572726

$$$$
