C[N+]1(C)C2C3NCC4C2C2C3C4C21
                    3D

 30 34  0  0  0  0  0  0  0  0999 V2000
    1.8583   -1.1245    0.0744 C   0  0  0  0  0  0  0  0  0  0  0  0
    1.2762    0.2492   -0.0773 N   0  3  0  0  0  0  0  0  0  0  0  0
    2.4224    1.2527   -0.2055 C   0  0  0  0  0  0  0  0  0  0  0  0
    0.2701    0.5010   -1.2068 C   0  0  0  0  0  0  0  0  0  0  0  0
   -0.9777   -0.2409   -1.3154 C   0  0  0  0  0  0  0  0  0  0  0  0
   -0.9213   -1.6895   -1.2614 N   0  0  0  0  0  0  0  0  0  0  0  0
   -1.4929   -1.9951   -0.0005 C   0  0  0  0  0  0  0  0  0  0  0  0
   -1.7660   -0.5848    0.5263 C   0  0  0  0  0  0  0  0  0  0  0  0
   -0.9497    1.0087   -0.4573 C   0  0  0  0  0  0  0  0  0  0  0  0
   -0.4589    1.6939    0.7803 C   0  0  0  0  0  0  0  0  0  0  0  0
   -1.4501    0.6295    0.4337 C   0  0  0  0  0  0  0  0  0  0  0  0
   -0.7913   -0.2078    1.5660 C   0  0  0  0  0  0  0  0  0  0  0  0
    0.5308    0.6234    1.2002 C   0  0  0  0  0  0  0  0  0  0  0  0
    1.1226   -1.8171    0.4731 H   0  0  0  0  0  0  0  0  0  0  0  0
    2.2144   -1.4527   -0.9062 H   0  0  0  0  0  0  0  0  0  0  0  0
    2.6963   -1.0782    0.7779 H   0  0  0  0  0  0  0  0  0  0  0  0
    2.0146    2.2642   -0.2882 H   0  0  0  0  0  0  0  0  0  0  0  0
    2.9845    1.0009   -1.1101 H   0  0  0  0  0  0  0  0  0  0  0  0
    3.0668    1.1734    0.6756 H   0  0  0  0  0  0  0  0  0  0  0  0
    0.6302    1.1504   -2.0074 H   0  0  0  0  0  0  0  0  0  0  0  0
   -1.7163    0.0620   -2.1030 H   0  0  0  0  0  0  0  0  0  0  0  0
   -0.0191   -2.1148   -1.4379 H   0  0  0  0  0  0  0  0  0  0  0  0
   -2.4326   -2.5390   -0.1442 H   0  0  0  0  0  0  0  0  0  0  0  0
   -0.8572   -2.5969    0.6547 H   0  0  0  0  0  0  0  0  0  0  0  0
   -2.8642   -0.5885    0.8606 H   0  0  0  0  0  0  0  0  0  0  0  0
   -1.6263    1.7289   -1.1157 H   0  0  0  0  0  0  0  0  0  0  0  0
   -0.1991    2.6849    0.4159 H   0  0  0  0  0  0  0  0  0  0  0  0
   -2.5491    1.1639    0.5789 H   0  0  0  0  0  0  0  0  0  0  0  0
   -1.1921   -0.0043    2.5653 H   0  0  0  0  0  0  0  0  0  0  0  0
    1.1769    0.8472    2.0540 H   0  0  0  0  0  0  0  0  0  0  0  0
  2  1  1  0  0  0  0
  3  2  1  0  0  0  0
  4  2  1  0  0  0  0
  5  4  1  0  0  0  0
  6  5  1  0  0  0  0
  7  6  1  0  0  0  0
  8  7  1  0  0  0  0
  9  8  1  0  0  0  0
  9  4  1  0  0  0  0
 10  9  1  0  0  0  0
 11 10  1  0  0  0  0
 11  5  1  0  0  0  0
 12 11  1  0  0  0  0
 12  8  1  0  0  0  0
 13 12  1  0  0  0  0
 13 10  1  0  0  0  0
 13  2  1  0  0  0  0
  1 14  1  0  0  0  0
  1 15  1  0  0  0  0
  1 16  1  0  0  0  0
  3 17  1  0  0  0  0
  3 18  1  0  0  0  0
  3 19  1  0  0  0  0
  4 20  1  0  0  0  0
  5 21  1  0  0  0  0
  6 22  1  0  0  0  0
  7 23  1  0  0  0  0
  7 24  1  0  0  0  0
  8 25  1  0  0  0  0
  9 26  1  0  0  0  0
 10 27  1  0  0  0  0
 11 28  1  0  0  0  0
 12 29  1  0  0  0  0
 13 30  1  0  0  0  0
M  CHG  1   2   1
M  END
>  <energy>
549.63725267045913

$$$$
