C1[NH+]=[N+]2CC3CC4C1C1CCN2C4C31
                    3D

 31 35  0  0  0  0  0  0  0  0999 V2000
   -0.7199   -1.5261    1.5526 C   0  0  0  0  0  0  0  0  0  0  0  0
    0.2426   -0.3966    2.1367 N   0  3  0  0  0  0  0  0  0  0  0  0
    0.2741    0.6886    1.4539 N   0  3  0  0  0  0  0  0  0  0  0  0
    1.4658    1.4652    0.9786 C   0  0  0  0  0  0  0  0  0  0  0  0
    1.6416    1.0332   -0.5747 C   0  0  0  0  0  0  0  0  0  0  0  0
    2.2080   -0.4571   -0.4562 C   0  0  0  0  0  0  0  0  0  0  0  0
    1.0099   -1.4478   -0.3156 C   0  0  0  0  0  0  0  0  0  0  0  0
   -0.6099   -1.5924   -0.0825 C   0  0  0  0  0  0  0  0  0  0  0  0
   -1.3427   -0.2362   -1.2802 C   0  0  0  0  0  0  0  0  0  0  0  0
   -2.4500    0.5920   -0.6633 C   0  0  0  0  0  0  0  0  0  0  0  0
   -1.6595    1.4088    0.3077 C   0  0  0  0  0  0  0  0  0  0  0  0
   -0.4797    0.5558    0.4964 N   0  0  0  0  0  0  0  0  0  0  0  0
    0.2807   -0.2921   -0.7974 C   0  0  0  0  0  0  0  0  0  0  0  0
    0.1917    0.8806   -1.5561 C   0  0  0  0  0  0  0  0  0  0  0  0
   -0.3502   -2.4597    1.9867 H   0  0  0  0  0  0  0  0  0  0  0  0
   -1.7359   -1.3106    1.8978 H   0  0  0  0  0  0  0  0  0  0  0  0
    0.9121   -0.5983    2.8838 H   0  0  0  0  0  0  0  0  0  0  0  0
    2.3376    1.2301    1.5968 H   0  0  0  0  0  0  0  0  0  0  0  0
    1.2166    2.5289    1.0513 H   0  0  0  0  0  0  0  0  0  0  0  0
    2.3533    1.7026   -1.0703 H   0  0  0  0  0  0  0  0  0  0  0  0
    2.9194   -0.5750    0.3687 H   0  0  0  0  0  0  0  0  0  0  0  0
    2.7551   -0.6779   -1.3850 H   0  0  0  0  0  0  0  0  0  0  0  0
    1.2449   -2.2794   -0.9959 H   0  0  0  0  0  0  0  0  0  0  0  0
   -1.0160   -2.5473   -0.4454 H   0  0  0  0  0  0  0  0  0  0  0  0
   -1.6471   -0.7256   -2.2246 H   0  0  0  0  0  0  0  0  0  0  0  0
   -2.9595    1.2254   -1.3945 H   0  0  0  0  0  0  0  0  0  0  0  0
   -3.1855   -0.0517   -0.1715 H   0  0  0  0  0  0  0  0  0  0  0  0
   -1.3814    2.3881   -0.0995 H   0  0  0  0  0  0  0  0  0  0  0  0
   -2.2148    1.5664    1.2395 H   0  0  0  0  0  0  0  0  0  0  0  0
    0.2099   -0.8789   -1.8272 H   0  0  0  0  0  0  0  0  0  0  0  0
    0.4889    0.7869   -2.6105 H   0  0  0  0  0  0  0  0  0  0  0  0
  2  1  1  0  0  0  0
  3  2  2  0  0  0  0
  4  3  1  0  0  0  0
  5  4  1  0  0  0  0
  6  5  1  0  0  0  0
  7  6  1  0  0  0  0
  8  7  1  0  0  0  0
  8  1  1  0  0  0  0
  9  8  1  0  0  0  0
 10  9  1  0  0  0  0
 11 10  1  0  0  0  0
 12 11  1  0  0  0  0
 12  3  1  0  0  0  0
 13 12  1  0  0  0  0
 13  7  1  0  0  0  0
 14 13  1  0  0  0  0
 14  5  1  0  0  0  0
 14  9  1  0  0  0  0
  1 15  1  0  0  0  0
  1 16  1  0  0  0  0
  2 17  1  0  0  0  0
  4 18  1  0  0  0  0
  4 19  1  0  0  0  0
  5 20  1  0  0  0  0
  6 21  1  0  0  0  0
  6 22  1  0  0  0  0
  7 23  1  0  0  0  0
  8 24  1  0  0  0  0
  9 25  1  0  0  0  0
 10 26  1  0  0  0  0
 10 27  1  0  0  0  0
 11 28  1  0  0  0  0
 11 29  1  0  0  0  0
 13 30  1  0  0  0  0
 14 31  1  0  0  0  0
M  CHG  2   2   1   3   1
M  END
>  <energy>
621.51125102307856

$$$$
