CNC(=S)SN1CCC23CC(CC1)(OO2)C1(CCCC(C)CC1)O3
                    3D

 52 55  0  0  0  0  0  0  0  0999 V2000
   -5.6114    0.5523   -0.0291 C   0  0  0  0  0  0  0  0  0  0  0  0
   -4.7238   -0.5610   -0.2684 N   0  0  0  0  0  0  0  0  0  0  0  0
   -4.8006   -1.8113    0.2879 C   0  0  0  0  0  0  0  0  0  0  0  0
   -6.0520   -2.4359    1.1954 S   0  0  0  0  0  0  0  0  0  0  0  0
   -3.3387   -2.7428   -0.0819 S   0  0  0  0  0  0  0  0  0  0  0  0
   -2.1468   -1.5424   -0.0605 N   0  0  0  0  0  0  0  0  0  0  0  0
   -1.6028   -1.0958    1.2892 C   0  0  0  0  0  0  0  0  0  0  0  0
   -0.4562   -1.9273    2.1002 C   0  0  0  0  0  0  0  0  0  0  0  0
    0.8133   -1.8768    1.2702 C   0  0  0  0  0  0  0  0  0  0  0  0
    0.3856   -2.6668    0.1109 C   0  0  0  0  0  0  0  0  0  0  0  0
    1.1164   -1.7797   -0.8407 C   0  0  0  0  0  0  0  0  0  0  0  0
    0.0010   -1.8375   -1.9024 C   0  0  0  0  0  0  0  0  0  0  0  0
   -1.4241   -1.1962   -1.3598 C   0  0  0  0  0  0  0  0  0  0  0  0
    2.2832   -2.5574   -0.4697 O   0  0  0  0  0  0  0  0  0  0  0  0
    2.0952   -2.5161    1.2022 O   0  0  0  0  0  0  0  0  0  0  0  0
    1.4888   -0.3307   -0.3024 C   0  0  0  0  0  0  0  0  0  0  0  0
    3.0300   -0.0345   -0.2335 C   0  0  0  0  0  0  0  0  0  0  0  0
    3.5137    1.0382    0.7667 C   0  0  0  0  0  0  0  0  0  0  0  0
    2.5317    2.1174    1.2042 C   0  0  0  0  0  0  0  0  0  0  0  0
    1.9419    2.9770    0.0866 C   0  0  0  0  0  0  0  0  0  0  0  0
    2.8782    4.1341   -0.2832 C   0  0  0  0  0  0  0  0  0  0  0  0
    1.5592    2.2083   -1.1761 C   0  0  0  0  0  0  0  0  0  0  0  0
    0.7894    0.8949   -0.9664 C   0  0  0  0  0  0  0  0  0  0  0  0
    1.0164   -0.4734    1.0329 O   0  0  0  0  0  0  0  0  0  0  0  0
   -5.3826    0.9743    0.9535 H   0  0  0  0  0  0  0  0  0  0  0  0
   -5.4261    1.3024   -0.8018 H   0  0  0  0  0  0  0  0  0  0  0  0
   -6.6560    0.2331   -0.0684 H   0  0  0  0  0  0  0  0  0  0  0  0
   -3.7952   -0.3575   -0.6259 H   0  0  0  0  0  0  0  0  0  0  0  0
   -1.2943   -0.0485    1.1910 H   0  0  0  0  0  0  0  0  0  0  0  0
   -2.4565   -1.0391    1.9813 H   0  0  0  0  0  0  0  0  0  0  0  0
   -0.2996   -1.4335    3.0669 H   0  0  0  0  0  0  0  0  0  0  0  0
   -0.7949   -2.9491    2.3196 H   0  0  0  0  0  0  0  0  0  0  0  0
   -0.6398   -2.9452   -0.0149 H   0  0  0  0  0  0  0  0  0  0  0  0
    0.7309   -3.7266    0.1417 H   0  0  0  0  0  0  0  0  0  0  0  0
   -0.1845   -2.8704   -2.2320 H   0  0  0  0  0  0  0  0  0  0  0  0
    0.3043   -1.3096   -2.8124 H   0  0  0  0  0  0  0  0  0  0  0  0
   -2.1297   -1.4215   -2.1743 H   0  0  0  0  0  0  0  0  0  0  0  0
   -1.3853   -0.1094   -1.4025 H   0  0  0  0  0  0  0  0  0  0  0  0
    3.6142   -0.9153    0.0444 H   0  0  0  0  0  0  0  0  0  0  0  0
    3.3903    0.1999   -1.2437 H   0  0  0  0  0  0  0  0  0  0  0  0
    4.4147    1.5089    0.3558 H   0  0  0  0  0  0  0  0  0  0  0  0
    3.8467    0.5227    1.6782 H   0  0  0  0  0  0  0  0  0  0  0  0
    3.0331    2.7633    1.9375 H   0  0  0  0  0  0  0  0  0  0  0  0
    1.7127    1.6603    1.7673 H   0  0  0  0  0  0  0  0  0  0  0  0
    1.0271    3.4324    0.4930 H   0  0  0  0  0  0  0  0  0  0  0  0
    3.1663    4.7110    0.6029 H   0  0  0  0  0  0  0  0  0  0  0  0
    3.7927    3.7749   -0.7671 H   0  0  0  0  0  0  0  0  0  0  0  0
    2.3800    4.8233   -0.9740 H   0  0  0  0  0  0  0  0  0  0  0  0
    0.9143    2.8655   -1.7782 H   0  0  0  0  0  0  0  0  0  0  0  0
    2.4350    2.0346   -1.8122 H   0  0  0  0  0  0  0  0  0  0  0  0
    0.5110    0.6285   -1.9896 H   0  0  0  0  0  0  0  0  0  0  0  0
   -0.1167    1.1539   -0.4079 H   0  0  0  0  0  0  0  0  0  0  0  0
  2  1  1  0  0  0  0
  3  2  1  0  0  0  0
  4  3  2  0  0  0  0
  5  3  1  0  0  0  0
  6  5  1  0  0  0  0
  7  6  1  0  0  0  0
  8  7  1  0  0  0  0
  9  8  1  0  0  0  0
 10  9  1  0  0  0  0
 11 10  1  0  0  0  0
 12 11  1  0  0  0  0
 13 12  1  0  0  0  0
 13  6  1  0  0  0  0
 14 11  1  0  0  0  0
 15 14  1  0  0  0  0
 15  9  1  0  0  0  0
 16 11  1  0  0  0  0
 17 16  1  0  0  0  0
 18 17  1  0  0  0  0
 19 18  1  0  0  0  0
 20 19  1  0  0  0  0
 21 20  1  0  0  0  0
 22 20  1  0  0  0  0
 23 22  1  0  0  0  0
 23 16  1  0  0  0  0
 24 16  1  0  0  0  0
 24  9  1  0  0  0  0
  1 25  1  0  0  0  0
  1 26  1  0  0  0  0
  1 27  1  0  0  0  0
  2 28  1  0  0  0  0
  7 29  1  0  0  0  0
  7 30  1  0  0  0  0
  8 31  1  0  0  0  0
  8 32  1  0  0  0  0
 10 33  1  0  0  0  0
 10 34  1  0  0  0  0
 12 35  1  0  0  0  0
 12 36  1  0  0  0  0
 13 37  1  0  0  0  0
 13 38  1  0  0  0  0
 17 39  1  0  0  0  0
 17 40  1  0  0  0  0
 18 41  1  0  0  0  0
 18 42  1  0  0  0  0
 19 43  1  0  0  0  0
 19 44  1  0  0  0  0
 20 45  1  0  0  0  0
 21 46  1  0  0  0  0
 21 47  1  0  0  0  0
 21 48  1  0  0  0  0
 22 49  1  0  0  0  0
 22 50  1  0  0  0  0
 23 51  1  0  0  0  0
 23 52  1  0  0  0  0
M  END
>  <energy>
212.07166994496578

$$$$
