CCCCOc1cc2c(c3ccoc13)-c1c(C)[nH]c(=S)c(C#N)c1CC2
                    3D

 46 49  0  0  0  0  0  0  0  0999 V2000
   -4.2124   -0.3386   -1.2373 C   0  0  0  0  0  0  0  0  0  0  0  0
   -4.4748    0.8654   -0.3446 C   0  0  0  0  0  0  0  0  0  0  0  0
   -3.1975    1.6302    0.0042 C   0  0  0  0  0  0  0  0  0  0  0  0
   -2.6735    2.5060   -1.1448 C   0  0  0  0  0  0  0  0  0  0  0  0
   -1.5378    3.3244   -0.7763 O   0  0  0  0  0  0  0  0  0  0  0  0
   -0.4543    2.5269   -0.4888 C   0  0  0  0  0  0  0  0  0  0  0  0
    0.2328    1.8763   -1.5081 C   0  0  0  0  0  0  0  0  0  0  0  0
    1.0849    0.8114   -1.2021 C   0  0  0  0  0  0  0  0  0  0  0  0
    1.3309    0.4054    0.1386 C   0  0  0  0  0  0  0  0  0  0  0  0
    0.6939    1.1282    1.1828 C   0  0  0  0  0  0  0  0  0  0  0  0
    0.5395    1.0260    2.5975 C   0  0  0  0  0  0  0  0  0  0  0  0
   -0.2336    2.0860    3.0088 C   0  0  0  0  0  0  0  0  0  0  0  0
   -0.6785    2.7781    1.9354 O   0  0  0  0  0  0  0  0  0  0  0  0
   -0.1375    2.1935    0.8295 C   0  0  0  0  0  0  0  0  0  0  0  0
    2.0186   -0.9042    0.3544 C   0  0  0  0  0  0  0  0  0  0  0  0
    2.8321   -1.2068    1.3961 C   0  0  0  0  0  0  0  0  0  0  0  0
    3.4441   -0.2604    2.3918 C   0  0  0  0  0  0  0  0  0  0  0  0
    3.1751   -2.5250    1.6240 N   0  0  0  0  0  0  0  0  0  0  0  0
    2.7389   -3.6015    0.8864 C   0  0  0  0  0  0  0  0  0  0  0  0
    3.0190   -5.1328    1.5157 S   0  0  0  0  0  0  0  0  0  0  0  0
    2.0851   -3.2666   -0.4109 C   0  0  0  0  0  0  0  0  0  0  0  0
    1.7808   -4.3024   -1.3461 C   0  0  0  0  0  0  0  0  0  0  0  0
    1.5065   -5.1039   -2.1334 N   0  0  0  0  0  0  0  0  0  0  0  0
    1.7980   -1.9712   -0.6622 C   0  0  0  0  0  0  0  0  0  0  0  0
    1.2684   -1.4994   -2.0136 C   0  0  0  0  0  0  0  0  0  0  0  0
    1.6384   -0.0439   -2.3121 C   0  0  0  0  0  0  0  0  0  0  0  0
   -3.4139   -0.9683   -0.8292 H   0  0  0  0  0  0  0  0  0  0  0  0
   -5.1147   -0.9549   -1.3160 H   0  0  0  0  0  0  0  0  0  0  0  0
   -3.9263   -0.0320   -2.2474 H   0  0  0  0  0  0  0  0  0  0  0  0
   -5.2018    1.5348   -0.8178 H   0  0  0  0  0  0  0  0  0  0  0  0
   -4.9283    0.5087    0.5886 H   0  0  0  0  0  0  0  0  0  0  0  0
   -2.4433    0.9023    0.3192 H   0  0  0  0  0  0  0  0  0  0  0  0
   -3.3805    2.2678    0.8755 H   0  0  0  0  0  0  0  0  0  0  0  0
   -3.4635    3.2019   -1.4479 H   0  0  0  0  0  0  0  0  0  0  0  0
   -2.4355    1.9062   -2.0330 H   0  0  0  0  0  0  0  0  0  0  0  0
    0.0062    2.1266   -2.5420 H   0  0  0  0  0  0  0  0  0  0  0  0
    0.9424    0.2723    3.2545 H   0  0  0  0  0  0  0  0  0  0  0  0
   -0.5753    2.4467    3.9666 H   0  0  0  0  0  0  0  0  0  0  0  0
    3.0044   -0.4127    3.3841 H   0  0  0  0  0  0  0  0  0  0  0  0
    3.3480    0.7900    2.1010 H   0  0  0  0  0  0  0  0  0  0  0  0
    4.5207   -0.4620    2.4788 H   0  0  0  0  0  0  0  0  0  0  0  0
    3.6758   -2.7561    2.4764 H   0  0  0  0  0  0  0  0  0  0  0  0
    0.1735   -1.6073   -2.0195 H   0  0  0  0  0  0  0  0  0  0  0  0
    1.6752   -2.1113   -2.8270 H   0  0  0  0  0  0  0  0  0  0  0  0
    1.2247    0.2529   -3.2849 H   0  0  0  0  0  0  0  0  0  0  0  0
    2.7251    0.0932   -2.3648 H   0  0  0  0  0  0  0  0  0  0  0  0
  2  1  1  0  0  0  0
  3  2  1  0  0  0  0
  4  3  1  0  0  0  0
  5  4  1  0  0  0  0
  6  5  1  0  0  0  0
  7  6  2  0  0  0  0
  8  7  1  0  0  0  0
  9  8  2  0  0  0  0
 10  9  1  0  0  0  0
 11 10  1  0  0  0  0
 12 11  2  0  0  0  0
 13 12  1  0  0  0  0
 14 13  1  0  0  0  0
 14  6  1  0  0  0  0
 14 10  2  0  0  0  0
 15  9  1  0  0  0  0
 16 15  2  0  0  0  0
 17 16  1  0  0  0  0
 18 16  1  0  0  0  0
 19 18  1  0  0  0  0
 20 19  2  0  0  0  0
 21 19  1  0  0  0  0
 22 21  1  0  0  0  0
 23 22  3  0  0  0  0
 24 21  2  0  0  0  0
 24 15  1  0  0  0  0
 25 24  1  0  0  0  0
 26 25  1  0  0  0  0
 26  8  1  0  0  0  0
  1 27  1  0  0  0  0
  1 28  1  0  0  0  0
  1 29  1  0  0  0  0
  2 30  1  0  0  0  0
  2 31  1  0  0  0  0
  3 32  1  0  0  0  0
  3 33  1  0  0  0  0
  4 34  1  0  0  0  0
  4 35  1  0  0  0  0
  7 36  1  0  0  0  0
 11 37  1  0  0  0  0
 12 38  1  0  0  0  0
 17 39  1  0  0  0  0
 17 40  1  0  0  0  0
 17 41  1  0  0  0  0
 18 42  1  0  0  0  0
 25 43  1  0  0  0  0
 25 44  1  0  0  0  0
 26 45  1  0  0  0  0
 26 46  1  0  0  0  0
M  END
>  <energy>
83.130043471447905

$$$$
