C=CC(C)(C)C=CC(=O)c1c(O)c(C)c2c3c1OC(C=C(C)O2)C(C)(C)O3
                    3D

 53 55  0  0  0  0  0  0  0  0999 V2000
   -2.8279    3.3875   -1.6401 C   0  0  0  0  0  0  0  0  0  0  0  0
   -3.2139    2.6749   -0.5723 C   0  0  0  0  0  0  0  0  0  0  0  0
   -4.2479    1.5507   -0.5032 C   0  0  0  0  0  0  0  0  0  0  0  0
   -5.2695    1.9280    0.5917 C   0  0  0  0  0  0  0  0  0  0  0  0
   -5.0311    1.3401   -1.8135 C   0  0  0  0  0  0  0  0  0  0  0  0
   -3.5716    0.2288   -0.1268 C   0  0  0  0  0  0  0  0  0  0  0  0
   -2.2920   -0.0927   -0.3923 C   0  0  0  0  0  0  0  0  0  0  0  0
   -1.6946   -1.3944    0.0127 C   0  0  0  0  0  0  0  0  0  0  0  0
   -2.3689   -2.2973    0.5079 O   0  0  0  0  0  0  0  0  0  0  0  0
   -0.2587   -1.6274   -0.2830 C   0  0  0  0  0  0  0  0  0  0  0  0
    0.2567   -2.9322   -0.3638 C   0  0  0  0  0  0  0  0  0  0  0  0
   -0.5423   -4.0367   -0.2089 O   0  0  0  0  0  0  0  0  0  0  0  0
    1.6413   -3.1305   -0.4341 C   0  0  0  0  0  0  0  0  0  0  0  0
    2.2679   -4.4751   -0.2142 C   0  0  0  0  0  0  0  0  0  0  0  0
    2.4383   -1.9822   -0.5682 C   0  0  0  0  0  0  0  0  0  0  0  0
    1.9112   -0.7576   -0.9151 C   0  0  0  0  0  0  0  0  0  0  0  0
    0.6558   -0.5689   -0.3693 C   0  0  0  0  0  0  0  0  0  0  0  0
    0.5389    0.4507    0.5848 O   0  0  0  0  0  0  0  0  0  0  0  0
    1.8867    0.8398    1.0158 C   0  0  0  0  0  0  0  0  0  0  0  0
    2.5791   -0.2684    1.8643 C   0  0  0  0  0  0  0  0  0  0  0  0
    3.3294   -1.3598    1.5300 C   0  0  0  0  0  0  0  0  0  0  0  0
    3.9844   -2.1979    2.5929 C   0  0  0  0  0  0  0  0  0  0  0  0
    3.5842   -1.8668    0.2335 O   0  0  0  0  0  0  0  0  0  0  0  0
    2.6566    1.3394   -0.2338 C   0  0  0  0  0  0  0  0  0  0  0  0
    1.9167    2.4801   -0.9559 C   0  0  0  0  0  0  0  0  0  0  0  0
    4.0640    1.8381    0.1196 C   0  0  0  0  0  0  0  0  0  0  0  0
    2.7980    0.2592   -1.1713 O   0  0  0  0  0  0  0  0  0  0  0  0
   -3.2477    3.2376   -2.6274 H   0  0  0  0  0  0  0  0  0  0  0  0
   -2.0480    4.1395   -1.5407 H   0  0  0  0  0  0  0  0  0  0  0  0
   -2.7159    2.8934    0.3731 H   0  0  0  0  0  0  0  0  0  0  0  0
   -4.8019    2.0087    1.5814 H   0  0  0  0  0  0  0  0  0  0  0  0
   -6.0686    1.1802    0.6640 H   0  0  0  0  0  0  0  0  0  0  0  0
   -5.7526    2.8881    0.3678 H   0  0  0  0  0  0  0  0  0  0  0  0
   -5.5408    2.2597   -2.1259 H   0  0  0  0  0  0  0  0  0  0  0  0
   -4.3785    1.0231   -2.6367 H   0  0  0  0  0  0  0  0  0  0  0  0
   -5.8041    0.5705   -1.6949 H   0  0  0  0  0  0  0  0  0  0  0  0
   -4.2024   -0.5022    0.3803 H   0  0  0  0  0  0  0  0  0  0  0  0
   -1.6562    0.5965   -0.9330 H   0  0  0  0  0  0  0  0  0  0  0  0
   -1.4311   -3.7230    0.0721 H   0  0  0  0  0  0  0  0  0  0  0  0
    3.3088   -4.4840   -0.5568 H   0  0  0  0  0  0  0  0  0  0  0  0
    2.2501   -4.7449    0.8464 H   0  0  0  0  0  0  0  0  0  0  0  0
    1.7452   -5.2458   -0.7894 H   0  0  0  0  0  0  0  0  0  0  0  0
    1.7437    1.6993    1.6856 H   0  0  0  0  0  0  0  0  0  0  0  0
    2.4518   -0.0795    2.9296 H   0  0  0  0  0  0  0  0  0  0  0  0
    4.9730   -2.5322    2.2603 H   0  0  0  0  0  0  0  0  0  0  0  0
    3.3742   -3.0838    2.8016 H   0  0  0  0  0  0  0  0  0  0  0  0
    4.1231   -1.6415    3.5255 H   0  0  0  0  0  0  0  0  0  0  0  0
    1.8497    3.3757   -0.3282 H   0  0  0  0  0  0  0  0  0  0  0  0
    0.9020    2.1950   -1.2529 H   0  0  0  0  0  0  0  0  0  0  0  0
    2.4358    2.7467   -1.8852 H   0  0  0  0  0  0  0  0  0  0  0  0
    4.0213    2.6539    0.8500 H   0  0  0  0  0  0  0  0  0  0  0  0
    4.5837    2.2003   -0.7766 H   0  0  0  0  0  0  0  0  0  0  0  0
    4.6947    1.0392    0.5224 H   0  0  0  0  0  0  0  0  0  0  0  0
  2  1  2  0  0  0  0
  3  2  1  0  0  0  0
  4  3  1  0  0  0  0
  5  3  1  0  0  0  0
  6  3  1  0  0  0  0
  7  6  2  0  0  0  0
  8  7  1  0  0  0  0
  9  8  2  0  0  0  0
 10  8  1  0  0  0  0
 11 10  2  0  0  0  0
 12 11  1  0  0  0  0
 13 11  1  0  0  0  0
 14 13  1  0  0  0  0
 15 13  2  0  0  0  0
 16 15  1  0  0  0  0
 17 16  2  0  0  0  0
 17 10  1  0  0  0  0
 18 17  1  0  0  0  0
 19 18  1  0  0  0  0
 20 19  1  0  0  0  0
 21 20  2  0  0  0  0
 22 21  1  0  0  0  0
 23 21  1  0  0  0  0
 23 15  1  0  0  0  0
 24 19  1  0  0  0  0
 25 24  1  0  0  0  0
 26 24  1  0  0  0  0
 27 24  1  0  0  0  0
 27 16  1  0  0  0  0
  1 28  1  0  0  0  0
  1 29  1  0  0  0  0
  2 30  1  0  0  0  0
  4 31  1  0  0  0  0
  4 32  1  0  0  0  0
  4 33  1  0  0  0  0
  5 34  1  0  0  0  0
  5 35  1  0  0  0  0
  5 36  1  0  0  0  0
  6 37  1  0  0  0  0
  7 38  1  0  0  0  0
 12 39  1  0  0  0  0
 14 40  1  0  0  0  0
 14 41  1  0  0  0  0
 14 42  1  0  0  0  0
 19 43  1  0  0  0  0
 20 44  1  0  0  0  0
 22 45  1  0  0  0  0
 22 46  1  0  0  0  0
 22 47  1  0  0  0  0
 25 48  1  0  0  0  0
 25 49  1  0  0  0  0
 25 50  1  0  0  0  0
 26 51  1  0  0  0  0
 26 52  1  0  0  0  0
 26 53  1  0  0  0  0
M  END
>  <energy>
190.51914361812157

$$$$
