CCCCC12OCC3(CC(=CF)C1(C)OO3)C2=O
                    3D

 35 37  0  0  0  0  0  0  0  0999 V2000
   -4.1590   -0.6300   -1.0133 C   0  0  0  0  0  0  0  0  0  0  0  0
   -3.0295   -0.2591   -0.0664 C   0  0  0  0  0  0  0  0  0  0  0  0
   -2.2302    0.9412   -0.5803 C   0  0  0  0  0  0  0  0  0  0  0  0
   -0.9997    1.2531    0.2886 C   0  0  0  0  0  0  0  0  0  0  0  0
    0.2672    0.4615   -0.0472 C   0  0  0  0  0  0  0  0  0  0  0  0
    0.0074   -0.8851   -0.5497 O   0  0  0  0  0  0  0  0  0  0  0  0
    0.8669   -1.0303   -1.7132 C   0  0  0  0  0  0  0  0  0  0  0  0
    2.1310   -0.0879   -1.5425 C   0  0  0  0  0  0  0  0  0  0  0  0
    2.9302   -0.8985   -0.4667 C   0  0  0  0  0  0  0  0  0  0  0  0
    2.2988   -0.7534    0.8959 C   0  0  0  0  0  0  0  0  0  0  0  0
    2.4484   -1.6682    1.8581 C   0  0  0  0  0  0  0  0  0  0  0  0
    1.8625   -1.5583    3.0622 F   0  0  0  0  0  0  0  0  0  0  0  0
    1.4943    0.5345    0.9325 C   0  0  0  0  0  0  0  0  0  0  0  0
    1.1441    1.0466    2.3285 C   0  0  0  0  0  0  0  0  0  0  0  0
    2.4560    1.4932    0.3886 O   0  0  0  0  0  0  0  0  0  0  0  0
    2.5750    1.2904   -1.1178 O   0  0  0  0  0  0  0  0  0  0  0  0
    0.9178    0.8456   -1.3342 C   0  0  0  0  0  0  0  0  0  0  0  0
    0.4569    1.6415   -2.1586 O   0  0  0  0  0  0  0  0  0  0  0  0
   -4.8412    0.2123   -1.1650 H   0  0  0  0  0  0  0  0  0  0  0  0
   -4.7356   -1.4669   -0.6069 H   0  0  0  0  0  0  0  0  0  0  0  0
   -3.7669   -0.9345   -1.9891 H   0  0  0  0  0  0  0  0  0  0  0  0
   -3.4501   -0.0230    0.9185 H   0  0  0  0  0  0  0  0  0  0  0  0
   -2.3842   -1.1325    0.0662 H   0  0  0  0  0  0  0  0  0  0  0  0
   -1.9397    0.7876   -1.6251 H   0  0  0  0  0  0  0  0  0  0  0  0
   -2.8907    1.8190   -0.5676 H   0  0  0  0  0  0  0  0  0  0  0  0
   -0.7759    2.3242    0.2051 H   0  0  0  0  0  0  0  0  0  0  0  0
   -1.2868    1.0761    1.3310 H   0  0  0  0  0  0  0  0  0  0  0  0
    1.1473   -2.0874   -1.8003 H   0  0  0  0  0  0  0  0  0  0  0  0
    0.2825   -0.8417   -2.6318 H   0  0  0  0  0  0  0  0  0  0  0  0
    3.9609   -0.5195   -0.4229 H   0  0  0  0  0  0  0  0  0  0  0  0
    3.0217   -1.9549   -0.7469 H   0  0  0  0  0  0  0  0  0  0  0  0
    3.0276   -2.5794    1.8006 H   0  0  0  0  0  0  0  0  0  0  0  0
    0.7671    2.0748    2.2802 H   0  0  0  0  0  0  0  0  0  0  0  0
    0.3934    0.4209    2.8197 H   0  0  0  0  0  0  0  0  0  0  0  0
    2.0326    1.0881    2.9697 H   0  0  0  0  0  0  0  0  0  0  0  0
  2  1  1  0  0  0  0
  3  2  1  0  0  0  0
  4  3  1  0  0  0  0
  5  4  1  0  0  0  0
  6  5  1  0  0  0  0
  7  6  1  0  0  0  0
  8  7  1  0  0  0  0
  9  8  1  0  0  0  0
 10  9  1  0  0  0  0
 11 10  2  0  0  0  0
 12 11  1  0  0  0  0
 13 10  1  0  0  0  0
 13  5  1  0  0  0  0
 14 13  1  0  0  0  0
 15 13  1  0  0  0  0
 16 15  1  0  0  0  0
 16  8  1  0  0  0  0
 17  8  1  0  0  0  0
 17  5  1  0  0  0  0
 18 17  2  0  0  0  0
  1 19  1  0  0  0  0
  1 20  1  0  0  0  0
  1 21  1  0  0  0  0
  2 22  1  0  0  0  0
  2 23  1  0  0  0  0
  3 24  1  0  0  0  0
  3 25  1  0  0  0  0
  4 26  1  0  0  0  0
  4 27  1  0  0  0  0
  7 28  1  0  0  0  0
  7 29  1  0  0  0  0
  9 30  1  0  0  0  0
  9 31  1  0  0  0  0
 11 32  1  0  0  0  0
 14 33  1  0  0  0  0
 14 34  1  0  0  0  0
 14 35  1  0  0  0  0
M  END
>  <energy>
213.11753439525449

$$$$
