C=CCNC(=O)C12CC3(CCC1C3)C2C(=O)NC(CNC(=O)C1CCCCC1)CC(C)(C)C
                    3D

 76 79  0  0  0  0  0  0  0  0999 V2000
   -0.4739   -2.2212    4.8408 C   0  0  0  0  0  0  0  0  0  0  0  0
   -1.0781   -2.7473    3.7628 C   0  0  0  0  0  0  0  0  0  0  0  0
   -1.5022   -1.9731    2.5551 C   0  0  0  0  0  0  0  0  0  0  0  0
   -0.7349   -2.4656    1.4318 N   0  0  0  0  0  0  0  0  0  0  0  0
    0.2903   -1.7446    0.8585 C   0  0  0  0  0  0  0  0  0  0  0  0
    0.5685   -0.5978    1.2312 O   0  0  0  0  0  0  0  0  0  0  0  0
    1.0270   -2.4361   -0.2966 C   0  0  0  0  0  0  0  0  0  0  0  0
    0.5259   -2.2218   -1.7389 C   0  0  0  0  0  0  0  0  0  0  0  0
    1.9786   -3.0631   -2.0651 C   0  0  0  0  0  0  0  0  0  0  0  0
    1.0143   -4.2296   -2.5687 C   0  0  0  0  0  0  0  0  0  0  0  0
    0.4728   -4.7931   -1.2048 C   0  0  0  0  0  0  0  0  0  0  0  0
    1.3372   -3.9956   -0.1955 C   0  0  0  0  0  0  0  0  0  0  0  0
    2.6316   -4.0348   -0.9879 C   0  0  0  0  0  0  0  0  0  0  0  0
    2.3306   -1.8217   -0.9195 C   0  0  0  0  0  0  0  0  0  0  0  0
    2.5012   -0.3965   -1.5034 C   0  0  0  0  0  0  0  0  0  0  0  0
    3.0203   -0.1739   -2.6007 O   0  0  0  0  0  0  0  0  0  0  0  0
    2.0098    0.6259   -0.7117 N   0  0  0  0  0  0  0  0  0  0  0  0
    1.7877    1.9445   -1.2786 C   0  0  0  0  0  0  0  0  0  0  0  0
    0.5574    1.9203   -2.2372 C   0  0  0  0  0  0  0  0  0  0  0  0
   -0.6961    1.5602   -1.5812 N   0  0  0  0  0  0  0  0  0  0  0  0
   -1.7967    1.1499   -2.2940 C   0  0  0  0  0  0  0  0  0  0  0  0
   -1.7629    0.8997   -3.4979 O   0  0  0  0  0  0  0  0  0  0  0  0
   -3.1000    1.0505   -1.4999 C   0  0  0  0  0  0  0  0  0  0  0  0
   -2.9977    0.0709   -0.3201 C   0  0  0  0  0  0  0  0  0  0  0  0
   -3.9502    0.3925    0.8332 C   0  0  0  0  0  0  0  0  0  0  0  0
   -5.2175    1.1012    0.3693 C   0  0  0  0  0  0  0  0  0  0  0  0
   -4.9273    2.4076   -0.3671 C   0  0  0  0  0  0  0  0  0  0  0  0
   -3.5566    2.4397   -1.0458 C   0  0  0  0  0  0  0  0  0  0  0  0
    1.6324    3.0538   -0.2129 C   0  0  0  0  0  0  0  0  0  0  0  0
    2.7286    3.2430    0.8844 C   0  0  0  0  0  0  0  0  0  0  0  0
    2.9265    4.7585    1.1100 C   0  0  0  0  0  0  0  0  0  0  0  0
    4.0907    2.6314    0.5376 C   0  0  0  0  0  0  0  0  0  0  0  0
    2.2468    2.6371    2.2190 C   0  0  0  0  0  0  0  0  0  0  0  0
   -0.2388   -1.1629    4.9175 H   0  0  0  0  0  0  0  0  0  0  0  0
   -0.1976   -2.8456    5.6826 H   0  0  0  0  0  0  0  0  0  0  0  0
   -1.3025   -3.8120    3.7676 H   0  0  0  0  0  0  0  0  0  0  0  0
   -2.5580   -2.1660    2.3403 H   0  0  0  0  0  0  0  0  0  0  0  0
   -1.3599   -0.8958    2.6908 H   0  0  0  0  0  0  0  0  0  0  0  0
   -0.9697   -3.3805    1.0718 H   0  0  0  0  0  0  0  0  0  0  0  0
    0.4317   -1.2176   -2.1709 H   0  0  0  0  0  0  0  0  0  0  0  0
   -0.4836   -2.6255   -1.8831 H   0  0  0  0  0  0  0  0  0  0  0  0
    1.5946   -4.9966   -3.1038 H   0  0  0  0  0  0  0  0  0  0  0  0
    0.2252   -3.9403   -3.2735 H   0  0  0  0  0  0  0  0  0  0  0  0
    0.6739   -5.8691   -1.1388 H   0  0  0  0  0  0  0  0  0  0  0  0
   -0.6013   -4.6319   -1.0813 H   0  0  0  0  0  0  0  0  0  0  0  0
    1.3929   -4.3973    0.8148 H   0  0  0  0  0  0  0  0  0  0  0  0
    2.8977   -5.0231   -1.3886 H   0  0  0  0  0  0  0  0  0  0  0  0
    3.5463   -3.6957   -0.4933 H   0  0  0  0  0  0  0  0  0  0  0  0
    3.1971   -1.9259   -0.2429 H   0  0  0  0  0  0  0  0  0  0  0  0
    1.4973    0.3779    0.1362 H   0  0  0  0  0  0  0  0  0  0  0  0
    2.6602    2.1935   -1.8975 H   0  0  0  0  0  0  0  0  0  0  0  0
    0.4147    2.9071   -2.6935 H   0  0  0  0  0  0  0  0  0  0  0  0
    0.7310    1.2095   -3.0561 H   0  0  0  0  0  0  0  0  0  0  0  0
   -0.8463    1.8928   -0.6367 H   0  0  0  0  0  0  0  0  0  0  0  0
   -3.8582    0.6571   -2.1933 H   0  0  0  0  0  0  0  0  0  0  0  0
   -3.2030   -0.9413   -0.6958 H   0  0  0  0  0  0  0  0  0  0  0  0
   -1.9802    0.0236    0.0785 H   0  0  0  0  0  0  0  0  0  0  0  0
   -4.2190   -0.5359    1.3492 H   0  0  0  0  0  0  0  0  0  0  0  0
   -3.4318    1.0195    1.5694 H   0  0  0  0  0  0  0  0  0  0  0  0
   -5.8651    1.3065    1.2284 H   0  0  0  0  0  0  0  0  0  0  0  0
   -5.7879    0.4310   -0.2872 H   0  0  0  0  0  0  0  0  0  0  0  0
   -5.7139    2.5719   -1.1118 H   0  0  0  0  0  0  0  0  0  0  0  0
   -4.9905    3.2532    0.3284 H   0  0  0  0  0  0  0  0  0  0  0  0
   -3.5864    3.1302   -1.8965 H   0  0  0  0  0  0  0  0  0  0  0  0
   -2.8274    2.8631   -0.3423 H   0  0  0  0  0  0  0  0  0  0  0  0
    0.6697    2.9358    0.2974 H   0  0  0  0  0  0  0  0  0  0  0  0
    1.5390    3.9975   -0.7709 H   0  0  0  0  0  0  0  0  0  0  0  0
    3.6636    4.9565    1.8947 H   0  0  0  0  0  0  0  0  0  0  0  0
    1.9915    5.2468    1.4050 H   0  0  0  0  0  0  0  0  0  0  0  0
    3.2837    5.2459    0.1964 H   0  0  0  0  0  0  0  0  0  0  0  0
    4.0653    1.5380    0.5667 H   0  0  0  0  0  0  0  0  0  0  0  0
    4.8534    2.9388    1.2619 H   0  0  0  0  0  0  0  0  0  0  0  0
    4.4342    2.9451   -0.4525 H   0  0  0  0  0  0  0  0  0  0  0  0
    2.9734    2.8193    3.0225 H   0  0  0  0  0  0  0  0  0  0  0  0
    2.1048    1.5558    2.1440 H   0  0  0  0  0  0  0  0  0  0  0  0
    1.2956    3.0755    2.5400 H   0  0  0  0  0  0  0  0  0  0  0  0
  2  1  2  0  0  0  0
  3  2  1  0  0  0  0
  4  3  1  0  0  0  0
  5  4  1  0  0  0  0
  6  5  2  0  0  0  0
  7  5  1  0  0  0  0
  8  7  1  0  0  0  0
  9  8  1  0  0  0  0
 10  9  1  0  0  0  0
 11 10  1  0  0  0  0
 12 11  1  0  0  0  0
 12  7  1  0  0  0  0
 13 12  1  0  0  0  0
 13  9  1  0  0  0  0
 14  9  1  0  0  0  0
 14  7  1  0  0  0  0
 15 14  1  0  0  0  0
 16 15  2  0  0  0  0
 17 15  1  0  0  0  0
 18 17  1  0  0  0  0
 19 18  1  0  0  0  0
 20 19  1  0  0  0  0
 21 20  1  0  0  0  0
 22 21  2  0  0  0  0
 23 21  1  0  0  0  0
 24 23  1  0  0  0  0
 25 24  1  0  0  0  0
 26 25  1  0  0  0  0
 27 26  1  0  0  0  0
 28 27  1  0  0  0  0
 28 23  1  0  0  0  0
 29 18  1  0  0  0  0
 30 29  1  0  0  0  0
 31 30  1  0  0  0  0
 32 30  1  0  0  0  0
 33 30  1  0  0  0  0
  1 34  1  0  0  0  0
  1 35  1  0  0  0  0
  2 36  1  0  0  0  0
  3 37  1  0  0  0  0
  3 38  1  0  0  0  0
  4 39  1  0  0  0  0
  8 40  1  0  0  0  0
  8 41  1  0  0  0  0
 10 42  1  0  0  0  0
 10 43  1  0  0  0  0
 11 44  1  0  0  0  0
 11 45  1  0  0  0  0
 12 46  1  0  0  0  0
 13 47  1  0  0  0  0
 13 48  1  0  0  0  0
 14 49  1  0  0  0  0
 17 50  1  0  0  0  0
 18 51  1  0  0  0  0
 19 52  1  0  0  0  0
 19 53  1  0  0  0  0
 20 54  1  0  0  0  0
 23 55  1  0  0  0  0
 24 56  1  0  0  0  0
 24 57  1  0  0  0  0
 25 58  1  0  0  0  0
 25 59  1  0  0  0  0
 26 60  1  0  0  0  0
 26 61  1  0  0  0  0
 27 62  1  0  0  0  0
 27 63  1  0  0  0  0
 28 64  1  0  0  0  0
 28 65  1  0  0  0  0
 29 66  1  0  0  0  0
 29 67  1  0  0  0  0
 31 68  1  0  0  0  0
 31 69  1  0  0  0  0
 31 70  1  0  0  0  0
 32 71  1  0  0  0  0
 32 72  1  0  0  0  0
 32 73  1  0  0  0  0
 33 74  1  0  0  0  0
 33 75  1  0  0  0  0
 33 76  1  0  0  0  0
M  END
>  <energy>
86.261676605706597

$$$$
