CCC1(CC2C3CCCC34OOC3OC5C2(C)OOC35OO4)CCC1
                    3D

 51 56  0  0  0  0  0  0  0  0999 V2000
    2.5248   -1.7787   -1.3049 C   0  0  0  0  0  0  0  0  0  0  0  0
    2.8966   -1.7915    0.1673 C   0  0  0  0  0  0  0  0  0  0  0  0
    2.3033   -0.6008    0.9691 C   0  0  0  0  0  0  0  0  0  0  0  0
    0.7555   -0.6753    1.0826 C   0  0  0  0  0  0  0  0  0  0  0  0
   -0.0337    0.1578    0.0298 C   0  0  0  0  0  0  0  0  0  0  0  0
   -1.2513   -0.7608   -0.6343 C   0  0  0  0  0  0  0  0  0  0  0  0
   -2.0657   -1.6583    0.3114 C   0  0  0  0  0  0  0  0  0  0  0  0
   -3.1342   -2.3107   -0.5899 C   0  0  0  0  0  0  0  0  0  0  0  0
   -3.0684   -1.6071   -1.9521 C   0  0  0  0  0  0  0  0  0  0  0  0
   -2.4139   -0.2584   -1.6399 C   0  0  0  0  0  0  0  0  0  0  0  0
   -3.4896    0.5224   -1.0344 O   0  0  0  0  0  0  0  0  0  0  0  0
   -3.7430    1.7715   -1.8229 O   0  0  0  0  0  0  0  0  0  0  0  0
   -2.7159    2.7826   -1.5150 C   0  0  0  0  0  0  0  0  0  0  0  0
   -2.5108    3.1356   -0.0570 O   0  0  0  0  0  0  0  0  0  0  0  0
   -1.7087    1.9136   -0.0423 C   0  0  0  0  0  0  0  0  0  0  0  0
   -0.3394    1.6897    0.4820 C   0  0  0  0  0  0  0  0  0  0  0  0
   -0.2982    1.9890    1.9759 C   0  0  0  0  0  0  0  0  0  0  0  0
    0.5647    2.5955   -0.1967 O   0  0  0  0  0  0  0  0  0  0  0  0
   -0.1833    3.1924   -1.3240 O   0  0  0  0  0  0  0  0  0  0  0  0
   -1.2735    2.2588   -1.5061 C   0  0  0  0  0  0  0  0  0  0  0  0
   -0.8434    1.2226   -2.4393 O   0  0  0  0  0  0  0  0  0  0  0  0
   -1.9404    0.3575   -2.8187 O   0  0  0  0  0  0  0  0  0  0  0  0
    2.9616   -0.5624    2.3944 C   0  0  0  0  0  0  0  0  0  0  0  0
    4.0129    0.4172    1.8481 C   0  0  0  0  0  0  0  0  0  0  0  0
    3.0282    0.7651    0.7210 C   0  0  0  0  0  0  0  0  0  0  0  0
    1.4497   -1.8981   -1.4463 H   0  0  0  0  0  0  0  0  0  0  0  0
    3.0105   -2.6154   -1.8182 H   0  0  0  0  0  0  0  0  0  0  0  0
    2.8345   -0.8501   -1.7925 H   0  0  0  0  0  0  0  0  0  0  0  0
    3.9910   -1.7948    0.2398 H   0  0  0  0  0  0  0  0  0  0  0  0
    2.5645   -2.7379    0.6136 H   0  0  0  0  0  0  0  0  0  0  0  0
    0.4957   -1.7332    0.9892 H   0  0  0  0  0  0  0  0  0  0  0  0
    0.4200   -0.4116    2.0887 H   0  0  0  0  0  0  0  0  0  0  0  0
    0.6632    0.2733   -0.8112 H   0  0  0  0  0  0  0  0  0  0  0  0
   -0.6598   -1.4496   -1.2585 H   0  0  0  0  0  0  0  0  0  0  0  0
   -2.5445   -1.0699    1.1020 H   0  0  0  0  0  0  0  0  0  0  0  0
   -1.4663   -2.4387    0.7878 H   0  0  0  0  0  0  0  0  0  0  0  0
   -2.9519   -3.3838   -0.7104 H   0  0  0  0  0  0  0  0  0  0  0  0
   -4.1252   -2.1971   -0.1385 H   0  0  0  0  0  0  0  0  0  0  0  0
   -4.0648   -1.5064   -2.3966 H   0  0  0  0  0  0  0  0  0  0  0  0
   -2.4553   -2.1863   -2.6537 H   0  0  0  0  0  0  0  0  0  0  0  0
   -2.8726    3.6893   -2.1039 H   0  0  0  0  0  0  0  0  0  0  0  0
   -2.3302    1.1650    0.4363 H   0  0  0  0  0  0  0  0  0  0  0  0
   -0.5467    3.0394    2.1637 H   0  0  0  0  0  0  0  0  0  0  0  0
    0.7023    1.8455    2.3922 H   0  0  0  0  0  0  0  0  0  0  0  0
   -1.0054    1.3719    2.5371 H   0  0  0  0  0  0  0  0  0  0  0  0
    2.3428   -0.1172    3.1825 H   0  0  0  0  0  0  0  0  0  0  0  0
    3.3616   -1.5079    2.7741 H   0  0  0  0  0  0  0  0  0  0  0  0
    4.9374   -0.0596    1.5067 H   0  0  0  0  0  0  0  0  0  0  0  0
    4.2734    1.2438    2.5137 H   0  0  0  0  0  0  0  0  0  0  0  0
    2.4577    1.6617    0.9613 H   0  0  0  0  0  0  0  0  0  0  0  0
    3.4843    0.9008   -0.2631 H   0  0  0  0  0  0  0  0  0  0  0  0
  2  1  1  0  0  0  0
  3  2  1  0  0  0  0
  4  3  1  0  0  0  0
  5  4  1  0  0  0  0
  6  5  1  0  0  0  0
  7  6  1  0  0  0  0
  8  7  1  0  0  0  0
  9  8  1  0  0  0  0
 10  9  1  0  0  0  0
 10  6  1  0  0  0  0
 11 10  1  0  0  0  0
 12 11  1  0  0  0  0
 13 12  1  0  0  0  0
 14 13  1  0  0  0  0
 15 14  1  0  0  0  0
 16 15  1  0  0  0  0
 16  5  1  0  0  0  0
 17 16  1  0  0  0  0
 18 16  1  0  0  0  0
 19 18  1  0  0  0  0
 20 19  1  0  0  0  0
 20 13  1  0  0  0  0
 20 15  1  0  0  0  0
 21 20  1  0  0  0  0
 22 21  1  0  0  0  0
 22 10  1  0  0  0  0
 23  3  1  0  0  0  0
 24 23  1  0  0  0  0
 25 24  1  0  0  0  0
 25  3  1  0  0  0  0
  1 26  1  0  0  0  0
  1 27  1  0  0  0  0
  1 28  1  0  0  0  0
  2 29  1  0  0  0  0
  2 30  1  0  0  0  0
  4 31  1  0  0  0  0
  4 32  1  0  0  0  0
  5 33  1  0  0  0  0
  6 34  1  0  0  0  0
  7 35  1  0  0  0  0
  7 36  1  0  0  0  0
  8 37  1  0  0  0  0
  8 38  1  0  0  0  0
  9 39  1  0  0  0  0
  9 40  1  0  0  0  0
 13 41  1  0  0  0  0
 15 42  1  0  0  0  0
 17 43  1  0  0  0  0
 17 44  1  0  0  0  0
 17 45  1  0  0  0  0
 23 46  1  0  0  0  0
 23 47  1  0  0  0  0
 24 48  1  0  0  0  0
 24 49  1  0  0  0  0
 25 50  1  0  0  0  0
 25 51  1  0  0  0  0
M  END
>  <energy>
232.61670965453379

$$$$
