CC1(F)CC2(C(=O)N=C3CCCC3)C3CCC4(C5CC6CC5C4C62)C1C(C(N)=O)C3
                    3D

 63 69  0  0  0  0  0  0  0  0999 V2000
    0.0925    0.8969    2.8480 C   0  0  0  0  0  0  0  0  0  0  0  0
   -0.7616    0.2654    1.7346 C   0  0  0  0  0  0  0  0  0  0  0  0
   -1.5778   -0.5243    2.4969 F   0  0  0  0  0  0  0  0  0  0  0  0
    0.1660   -0.5755    0.8339 C   0  0  0  0  0  0  0  0  0  0  0  0
   -0.0003   -0.5035   -0.7286 C   0  0  0  0  0  0  0  0  0  0  0  0
    1.3615   -1.0834   -1.2504 C   0  0  0  0  0  0  0  0  0  0  0  0
    1.4603   -2.2026   -1.7399 O   0  0  0  0  0  0  0  0  0  0  0  0
    2.4236   -0.2269   -1.0706 N   0  0  0  0  0  0  0  0  0  0  0  0
    3.5685   -0.6911   -0.6884 C   0  0  0  0  0  0  0  0  0  0  0  0
    4.6985    0.2668   -0.4110 C   0  0  0  0  0  0  0  0  0  0  0  0
    5.6000   -0.5876    0.4662 C   0  0  0  0  0  0  0  0  0  0  0  0
    5.4404   -1.9926   -0.0999 C   0  0  0  0  0  0  0  0  0  0  0  0
    3.9524   -2.1226   -0.4124 C   0  0  0  0  0  0  0  0  0  0  0  0
   -0.1004    1.0636   -1.3788 C   0  0  0  0  0  0  0  0  0  0  0  0
   -1.4091    1.6571   -2.1070 C   0  0  0  0  0  0  0  0  0  0  0  0
   -2.7955    1.5131   -1.3350 C   0  0  0  0  0  0  0  0  0  0  0  0
   -2.5569    0.4285   -0.2670 C   0  0  0  0  0  0  0  0  0  0  0  0
   -3.3603   -0.8887    0.3396 C   0  0  0  0  0  0  0  0  0  0  0  0
   -2.5925   -2.1687    0.8025 C   0  0  0  0  0  0  0  0  0  0  0  0
   -1.8427   -2.6327   -0.4595 C   0  0  0  0  0  0  0  0  0  0  0  0
   -3.1100   -2.8066   -1.3183 C   0  0  0  0  0  0  0  0  0  0  0  0
   -3.6068   -1.3752   -1.1051 C   0  0  0  0  0  0  0  0  0  0  0  0
   -2.3242   -0.6241   -1.4580 C   0  0  0  0  0  0  0  0  0  0  0  0
   -1.1205   -1.4788   -1.2376 C   0  0  0  0  0  0  0  0  0  0  0  0
   -1.7083    1.1858    0.9422 C   0  0  0  0  0  0  0  0  0  0  0  0
   -0.9321    2.4872    0.5150 C   0  0  0  0  0  0  0  0  0  0  0  0
   -0.5701    3.4618    1.6358 C   0  0  0  0  0  0  0  0  0  0  0  0
   -1.6053    3.8469    2.4358 N   0  0  0  0  0  0  0  0  0  0  0  0
    0.5509    3.9250    1.8134 O   0  0  0  0  0  0  0  0  0  0  0  0
    0.2876    2.1365   -0.3467 C   0  0  0  0  0  0  0  0  0  0  0  0
    0.9258    1.4986    2.4822 H   0  0  0  0  0  0  0  0  0  0  0  0
   -0.5283    1.4880    3.5283 H   0  0  0  0  0  0  0  0  0  0  0  0
    0.5264    0.1022    3.4691 H   0  0  0  0  0  0  0  0  0  0  0  0
    1.1973   -0.2811    1.0717 H   0  0  0  0  0  0  0  0  0  0  0  0
    0.1448   -1.6245    1.1559 H   0  0  0  0  0  0  0  0  0  0  0  0
    4.3490    1.1682    0.0983 H   0  0  0  0  0  0  0  0  0  0  0  0
    5.1808    0.5308   -1.3564 H   0  0  0  0  0  0  0  0  0  0  0  0
    5.2507   -0.5618    1.5058 H   0  0  0  0  0  0  0  0  0  0  0  0
    6.6383   -0.2444    0.4491 H   0  0  0  0  0  0  0  0  0  0  0  0
    5.7847   -2.7647    0.5942 H   0  0  0  0  0  0  0  0  0  0  0  0
    6.0254   -2.0858   -1.0233 H   0  0  0  0  0  0  0  0  0  0  0  0
    3.7916   -2.7704   -1.2762 H   0  0  0  0  0  0  0  0  0  0  0  0
    3.3897   -2.4897    0.4508 H   0  0  0  0  0  0  0  0  0  0  0  0
    0.6596    1.1054   -2.1716 H   0  0  0  0  0  0  0  0  0  0  0  0
   -1.2579    2.7222   -2.3327 H   0  0  0  0  0  0  0  0  0  0  0  0
   -1.4781    1.2088   -3.1072 H   0  0  0  0  0  0  0  0  0  0  0  0
   -3.5979    1.2730   -2.0481 H   0  0  0  0  0  0  0  0  0  0  0  0
   -3.1479    2.4528   -0.8998 H   0  0  0  0  0  0  0  0  0  0  0  0
   -4.2466   -0.6528    0.9334 H   0  0  0  0  0  0  0  0  0  0  0  0
   -3.3286   -2.9221    1.1231 H   0  0  0  0  0  0  0  0  0  0  0  0
   -1.9221   -2.1156    1.6413 H   0  0  0  0  0  0  0  0  0  0  0  0
   -1.2504   -3.5402   -0.3341 H   0  0  0  0  0  0  0  0  0  0  0  0
   -3.8108   -3.5536   -0.9296 H   0  0  0  0  0  0  0  0  0  0  0  0
   -2.9009   -3.0356   -2.3689 H   0  0  0  0  0  0  0  0  0  0  0  0
   -4.5248   -1.0444   -1.5941 H   0  0  0  0  0  0  0  0  0  0  0  0
   -2.4068   -0.4035   -2.5322 H   0  0  0  0  0  0  0  0  0  0  0  0
   -0.8177   -1.8952   -2.2090 H   0  0  0  0  0  0  0  0  0  0  0  0
   -2.4993    1.4971    1.6387 H   0  0  0  0  0  0  0  0  0  0  0  0
   -1.5727    3.1426   -0.0798 H   0  0  0  0  0  0  0  0  0  0  0  0
   -1.4014    4.5609    3.1232 H   0  0  0  0  0  0  0  0  0  0  0  0
   -2.5709    3.7051    2.1781 H   0  0  0  0  0  0  0  0  0  0  0  0
    1.1569    1.8355    0.2446 H   0  0  0  0  0  0  0  0  0  0  0  0
    0.6144    3.0446   -0.8742 H   0  0  0  0  0  0  0  0  0  0  0  0
  2  1  1  0  0  0  0
  3  2  1  0  0  0  0
  4  2  1  0  0  0  0
  5  4  1  0  0  0  0
  6  5  1  0  0  0  0
  7  6  2  0  0  0  0
  8  6  1  0  0  0  0
  9  8  2  0  0  0  0
 10  9  1  0  0  0  0
 11 10  1  0  0  0  0
 12 11  1  0  0  0  0
 13 12  1  0  0  0  0
 13  9  1  0  0  0  0
 14  5  1  0  0  0  0
 15 14  1  0  0  0  0
 16 15  1  0  0  0  0
 17 16  1  0  0  0  0
 18 17  1  0  0  0  0
 19 18  1  0  0  0  0
 20 19  1  0  0  0  0
 21 20  1  0  0  0  0
 22 21  1  0  0  0  0
 22 18  1  0  0  0  0
 23 22  1  0  0  0  0
 23 17  1  0  0  0  0
 24 23  1  0  0  0  0
 24 20  1  0  0  0  0
 24  5  1  0  0  0  0
 25 17  1  0  0  0  0
 25  2  1  0  0  0  0
 26 25  1  0  0  0  0
 27 26  1  0  0  0  0
 28 27  1  0  0  0  0
 29 27  2  0  0  0  0
 30 26  1  0  0  0  0
 30 14  1  0  0  0  0
  1 31  1  0  0  0  0
  1 32  1  0  0  0  0
  1 33  1  0  0  0  0
  4 34  1  0  0  0  0
  4 35  1  0  0  0  0
 10 36  1  0  0  0  0
 10 37  1  0  0  0  0
 11 38  1  0  0  0  0
 11 39  1  0  0  0  0
 12 40  1  0  0  0  0
 12 41  1  0  0  0  0
 13 42  1  0  0  0  0
 13 43  1  0  0  0  0
 14 44  1  0  0  0  0
 15 45  1  0  0  0  0
 15 46  1  0  0  0  0
 16 47  1  0  0  0  0
 16 48  1  0  0  0  0
 18 49  1  0  0  0  0
 19 50  1  0  0  0  0
 19 51  1  0  0  0  0
 20 52  1  0  0  0  0
 21 53  1  0  0  0  0
 21 54  1  0  0  0  0
 22 55  1  0  0  0  0
 23 56  1  0  0  0  0
 24 57  1  0  0  0  0
 25 58  1  0  0  0  0
 26 59  1  0  0  0  0
 28 60  1  0  0  0  0
 28 61  1  0  0  0  0
 30 62  1  0  0  0  0
 30 63  1  0  0  0  0
M  END
>  <energy>
174.48457592536161

$$$$
