CNCCNCC1(O)C2(CC=C(C)C)CC(O)C3C(C)(C)C(O)C(CO)C4(O)CCC(C)C4(C(O)C(C)(C)O)C1(C2=O
                    3D

107110  0  0  0  0  0  0  0  0999 V2000
    3.5498   -5.0066   -0.6781 C   0  0  0  0  0  0  0  0  0  0  0  0
    2.2541   -4.7733   -0.0533 N   0  0  0  0  0  0  0  0  0  0  0  0
    1.1678   -4.9621   -1.0224 C   0  0  0  0  0  0  0  0  0  0  0  0
   -0.2204   -4.7250   -0.3898 C   0  0  0  0  0  0  0  0  0  0  0  0
   -0.3309   -3.5258    0.4561 N   0  0  0  0  0  0  0  0  0  0  0  0
   -0.1521   -2.2781   -0.3182 C   0  0  0  0  0  0  0  0  0  0  0  0
   -0.7944   -1.0638    0.4264 C   0  0  0  0  0  0  0  0  0  0  0  0
   -0.8327   -1.4035    1.8341 O   0  0  0  0  0  0  0  0  0  0  0  0
   -2.2558   -0.6132   -0.1562 C   0  0  0  0  0  0  0  0  0  0  0  0
   -3.0206   -1.6302   -1.0765 C   0  0  0  0  0  0  0  0  0  0  0  0
   -3.5577   -2.8160   -0.3245 C   0  0  0  0  0  0  0  0  0  0  0  0
   -3.8936   -4.0160   -0.8455 C   0  0  0  0  0  0  0  0  0  0  0  0
   -3.7362   -4.4207   -2.2857 C   0  0  0  0  0  0  0  0  0  0  0  0
   -4.4972   -5.0871    0.0269 C   0  0  0  0  0  0  0  0  0  0  0  0
   -3.3533    0.1881    0.6444 C   0  0  0  0  0  0  0  0  0  0  0  0
   -3.0009    1.1273    1.8234 C   0  0  0  0  0  0  0  0  0  0  0  0
   -2.7851    0.3194    2.9615 O   0  0  0  0  0  0  0  0  0  0  0  0
   -1.9550    2.1979    1.4619 C   0  0  0  0  0  0  0  0  0  0  0  0
   -1.4439    3.4458    2.4579 C   0  0  0  0  0  0  0  0  0  0  0  0
   -2.4401    4.6272    2.2100 C   0  0  0  0  0  0  0  0  0  0  0  0
   -1.6653    3.1581    3.9715 C   0  0  0  0  0  0  0  0  0  0  0  0
    0.1744    4.1105    2.2073 C   0  0  0  0  0  0  0  0  0  0  0  0
    0.7080    4.4554    3.5075 O   0  0  0  0  0  0  0  0  0  0  0  0
    1.5688    3.7059    1.2203 C   0  0  0  0  0  0  0  0  0  0  0  0
    1.7736    4.9137    0.2353 C   0  0  0  0  0  0  0  0  0  0  0  0
    3.0404    4.9481   -0.4014 O   0  0  0  0  0  0  0  0  0  0  0  0
    2.1435    2.1733    0.7228 C   0  0  0  0  0  0  0  0  0  0  0  0
    2.4633    1.5674    2.0183 O   0  0  0  0  0  0  0  0  0  0  0  0
    3.5975    2.1547    0.1602 C   0  0  0  0  0  0  0  0  0  0  0  0
    3.8840    0.6945   -0.2531 C   0  0  0  0  0  0  0  0  0  0  0  0
    2.5562   -0.1259   -0.2047 C   0  0  0  0  0  0  0  0  0  0  0  0
    2.6373   -1.0368    1.0354 C   0  0  0  0  0  0  0  0  0  0  0  0
    1.4056    0.9377   -0.3820 C   0  0  0  0  0  0  0  0  0  0  0  0
    1.3552    1.4010   -1.9760 C   0  0  0  0  0  0  0  0  0  0  0  0
    2.1660    2.5809   -2.1648 O   0  0  0  0  0  0  0  0  0  0  0  0
    1.6753    0.4579   -3.2053 C   0  0  0  0  0  0  0  0  0  0  0  0
    1.0520   -0.9370   -3.2570 C   0  0  0  0  0  0  0  0  0  0  0  0
    1.2533    1.1710   -4.5128 C   0  0  0  0  0  0  0  0  0  0  0  0
    3.1063    0.3503   -3.2985 O   0  0  0  0  0  0  0  0  0  0  0  0
   -0.2224    0.4981    0.0574 C   0  0  0  0  0  0  0  0  0  0  0  0
   -1.3737    0.3079   -1.1045 C   0  0  0  0  0  0  0  0  0  0  0  0
   -1.5743    0.6916   -2.2364 O   0  0  0  0  0  0  0  0  0  0  0  0
   -0.6434    1.6937    0.9302 C   0  0  0  0  0  0  0  0  0  0  0  0
   -0.5342    2.8824   -0.1503 C   0  0  0  0  0  0  0  0  0  0  0  0
    0.0304    1.2320    2.2728 C   0  0  0  0  0  0  0  0  0  0  0  0
    3.6505   -6.0438   -1.0150 H   0  0  0  0  0  0  0  0  0  0  0  0
    4.3460   -4.8057    0.0455 H   0  0  0  0  0  0  0  0  0  0  0  0
    3.7050   -4.3372   -1.5314 H   0  0  0  0  0  0  0  0  0  0  0  0
    2.1357   -5.4281    0.7223 H   0  0  0  0  0  0  0  0  0  0  0  0
    1.1961   -5.9806   -1.4284 H   0  0  0  0  0  0  0  0  0  0  0  0
    1.2974   -4.2645   -1.8596 H   0  0  0  0  0  0  0  0  0  0  0  0
   -0.4607   -5.5862    0.2442 H   0  0  0  0  0  0  0  0  0  0  0  0
   -0.9764   -4.7035   -1.1775 H   0  0  0  0  0  0  0  0  0  0  0  0
    0.4615   -3.5703    1.1086 H   0  0  0  0  0  0  0  0  0  0  0  0
   -0.5411   -2.3840   -1.3288 H   0  0  0  0  0  0  0  0  0  0  0  0
    0.9132   -2.1327   -0.4494 H   0  0  0  0  0  0  0  0  0  0  0  0
   -1.1140   -2.3435    1.8305 H   0  0  0  0  0  0  0  0  0  0  0  0
   -3.8689   -1.1113   -1.5437 H   0  0  0  0  0  0  0  0  0  0  0  0
   -2.3920   -1.9480   -1.9118 H   0  0  0  0  0  0  0  0  0  0  0  0
   -3.7153   -2.6753    0.7418 H   0  0  0  0  0  0  0  0  0  0  0  0
   -3.2055   -5.3776   -2.3524 H   0  0  0  0  0  0  0  0  0  0  0  0
   -4.7164   -4.5448   -2.7559 H   0  0  0  0  0  0  0  0  0  0  0  0
   -3.1686   -3.7052   -2.8837 H   0  0  0  0  0  0  0  0  0  0  0  0
   -4.6522   -4.7441    1.0557 H   0  0  0  0  0  0  0  0  0  0  0  0
   -5.4731   -5.3884   -0.3710 H   0  0  0  0  0  0  0  0  0  0  0  0
   -3.8421   -5.9648    0.0577 H   0  0  0  0  0  0  0  0  0  0  0  0
   -3.9257    0.7751   -0.0896 H   0  0  0  0  0  0  0  0  0  0  0  0
   -4.0675   -0.5369    1.0588 H   0  0  0  0  0  0  0  0  0  0  0  0
   -3.9242    1.6788    2.0520 H   0  0  0  0  0  0  0  0  0  0  0  0
   -2.7007    0.8814    3.7455 H   0  0  0  0  0  0  0  0  0  0  0  0
   -2.5293    2.7092    0.6706 H   0  0  0  0  0  0  0  0  0  0  0  0
   -2.3990    4.9968    1.1813 H   0  0  0  0  0  0  0  0  0  0  0  0
   -3.4717    4.3148    2.4149 H   0  0  0  0  0  0  0  0  0  0  0  0
   -2.2166    5.4728    2.8686 H   0  0  0  0  0  0  0  0  0  0  0  0
   -1.4476    4.0496    4.5719 H   0  0  0  0  0  0  0  0  0  0  0  0
   -2.7094    2.9063    4.1788 H   0  0  0  0  0  0  0  0  0  0  0  0
   -1.0376    2.3605    4.3683 H   0  0  0  0  0  0  0  0  0  0  0  0
   -0.0795    5.1022    1.8106 H   0  0  0  0  0  0  0  0  0  0  0  0
    1.0451    3.6353    3.9082 H   0  0  0  0  0  0  0  0  0  0  0  0
    2.3628    3.9354    1.9541 H   0  0  0  0  0  0  0  0  0  0  0  0
    1.7080    5.8461    0.8098 H   0  0  0  0  0  0  0  0  0  0  0  0
    1.0025    4.9900   -0.5346 H   0  0  0  0  0  0  0  0  0  0  0  0
    2.9199    4.4964   -1.2577 H   0  0  0  0  0  0  0  0  0  0  0  0
    3.1533    2.0978    2.4603 H   0  0  0  0  0  0  0  0  0  0  0  0
    3.7780    2.7862   -0.7015 H   0  0  0  0  0  0  0  0  0  0  0  0
    4.3451    2.4717    0.8994 H   0  0  0  0  0  0  0  0  0  0  0  0
    4.3134    0.6861   -1.2607 H   0  0  0  0  0  0  0  0  0  0  0  0
    4.6534    0.2602    0.3967 H   0  0  0  0  0  0  0  0  0  0  0  0
    2.5708   -0.8138   -1.0452 H   0  0  0  0  0  0  0  0  0  0  0  0
    3.1518   -0.5918    1.8914 H   0  0  0  0  0  0  0  0  0  0  0  0
    3.2194   -1.9318    0.7806 H   0  0  0  0  0  0  0  0  0  0  0  0
    1.6741   -1.3808    1.3981 H   0  0  0  0  0  0  0  0  0  0  0  0
    0.3564    1.7656   -2.1812 H   0  0  0  0  0  0  0  0  0  0  0  0
    2.9617    2.2541   -2.6399 H   0  0  0  0  0  0  0  0  0  0  0  0
    1.3408   -1.4409   -4.1897 H   0  0  0  0  0  0  0  0  0  0  0  0
   -0.0382   -0.9187   -3.2282 H   0  0  0  0  0  0  0  0  0  0  0  0
    1.4225   -1.5967   -2.4770 H   0  0  0  0  0  0  0  0  0  0  0  0
    0.1692    1.3117   -4.5651 H   0  0  0  0  0  0  0  0  0  0  0  0
    1.7316    2.1482   -4.6252 H   0  0  0  0  0  0  0  0  0  0  0  0
    1.5621    0.5910   -5.3922 H   0  0  0  0  0  0  0  0  0  0  0  0
    3.3509   -0.5908   -3.3190 H   0  0  0  0  0  0  0  0  0  0  0  0
   -0.8577    3.8789    0.1536 H   0  0  0  0  0  0  0  0  0  0  0  0
   -1.2209    2.7037   -0.9875 H   0  0  0  0  0  0  0  0  0  0  0  0
    0.4099    3.0314   -0.6291 H   0  0  0  0  0  0  0  0  0  0  0  0
    0.5117    1.9726    2.8910 H   0  0  0  0  0  0  0  0  0  0  0  0
    0.7228    0.4019    2.1597 H   0  0  0  0  0  0  0  0  0  0  0  0
   -0.6704    0.7594    2.9574 H   0  0  0  0  0  0  0  0  0  0  0  0
  2  1  1  0  0  0  0
  3  2  1  0  0  0  0
  4  3  1  0  0  0  0
  5  4  1  0  0  0  0
  6  5  1  0  0  0  0
  7  6  1  0  0  0  0
  8  7  1  0  0  0  0
  9  7  1  0  0  0  0
 10  9  1  0  0  0  0
 11 10  1  0  0  0  0
 12 11  2  0  0  0  0
 13 12  1  0  0  0  0
 14 12  1  0  0  0  0
 15  9  1  0  0  0  0
 16 15  1  0  0  0  0
 17 16  1  0  0  0  0
 18 16  1  0  0  0  0
 19 18  1  0  0  0  0
 20 19  1  0  0  0  0
 21 19  1  0  0  0  0
 22 19  1  0  0  0  0
 23 22  1  0  0  0  0
 24 22  1  0  0  0  0
 25 24  1  0  0  0  0
 26 25  1  0  0  0  0
 27 24  1  0  0  0  0
 28 27  1  0  0  0  0
 29 27  1  0  0  0  0
 30 29  1  0  0  0  0
 31 30  1  0  0  0  0
 32 31  1  0  0  0  0
 33 31  1  0  0  0  0
 33 27  1  0  0  0  0
 34 33  1  0  0  0  0
 35 34  1  0  0  0  0
 36 34  1  0  0  0  0
 37 36  1  0  0  0  0
 38 36  1  0  0  0  0
 39 36  1  0  0  0  0
 40 33  1  0  0  0  0
 40  7  1  0  0  0  0
 41 40  1  0  0  0  0
 41  9  1  0  0  0  0
 42 41  2  0  0  0  0
 43 40  1  0  0  0  0
 43 18  1  0  0  0  0
 44 43  1  0  0  0  0
 45 43  1  0  0  0  0
  1 46  1  0  0  0  0
  1 47  1  0  0  0  0
  1 48  1  0  0  0  0
  2 49  1  0  0  0  0
  3 50  1  0  0  0  0
  3 51  1  0  0  0  0
  4 52  1  0  0  0  0
  4 53  1  0  0  0  0
  5 54  1  0  0  0  0
  6 55  1  0  0  0  0
  6 56  1  0  0  0  0
  8 57  1  0  0  0  0
 10 58  1  0  0  0  0
 10 59  1  0  0  0  0
 11 60  1  0  0  0  0
 13 61  1  0  0  0  0
 13 62  1  0  0  0  0
 13 63  1  0  0  0  0
 14 64  1  0  0  0  0
 14 65  1  0  0  0  0
 14 66  1  0  0  0  0
 15 67  1  0  0  0  0
 15 68  1  0  0  0  0
 16 69  1  0  0  0  0
 17 70  1  0  0  0  0
 18 71  1  0  0  0  0
 20 72  1  0  0  0  0
 20 73  1  0  0  0  0
 20 74  1  0  0  0  0
 21 75  1  0  0  0  0
 21 76  1  0  0  0  0
 21 77  1  0  0  0  0
 22 78  1  0  0  0  0
 23 79  1  0  0  0  0
 24 80  1  0  0  0  0
 25 81  1  0  0  0  0
 25 82  1  0  0  0  0
 26 83  1  0  0  0  0
 28 84  1  0  0  0  0
 29 85  1  0  0  0  0
 29 86  1  0  0  0  0
 30 87  1  0  0  0  0
 30 88  1  0  0  0  0
 31 89  1  0  0  0  0
 32 90  1  0  0  0  0
 32 91  1  0  0  0  0
 32 92  1  0  0  0  0
 34 93  1  0  0  0  0
 35 94  1  0  0  0  0
 37 95  1  0  0  0  0
 37 96  1  0  0  0  0
 37 97  1  0  0  0  0
 38 98  1  0  0  0  0
 38 99  1  0  0  0  0
 38100  1  0  0  0  0
 39101  1  0  0  0  0
 44102  1  0  0  0  0
 44103  1  0  0  0  0
 44104  1  0  0  0  0
 45105  1  0  0  0  0
 45106  1  0  0  0  0
 45107  1  0  0  0  0
M  END
>  <energy>
489.47016969232294

$$$$
