O=C(O)C12CC3CC1CC32
                    3D

 20 22  0  0  0  0  0  0  0  0999 V2000
   -2.4402    0.9809   -1.4557 O   0  0  0  0  0  0  0  0  0  0  0  0
   -1.8688    0.8420   -0.3814 C   0  0  0  0  0  0  0  0  0  0  0  0
   -2.3789    1.4660    0.7066 O   0  0  0  0  0  0  0  0  0  0  0  0
   -0.6092    0.0302   -0.0840 C   0  0  0  0  0  0  0  0  0  0  0  0
   -0.5841   -1.5112   -0.2138 C   0  0  0  0  0  0  0  0  0  0  0  0
    0.9474   -1.2902   -0.2788 C   0  0  0  0  0  0  0  0  0  0  0  0
    1.3454   -0.7745    1.0917 C   0  0  0  0  0  0  0  0  0  0  0  0
    0.5044    0.4768    0.9176 C   0  0  0  0  0  0  0  0  0  0  0  0
    1.1296    1.2326   -0.2876 C   0  0  0  0  0  0  0  0  0  0  0  0
    0.6057    0.0103   -1.0689 C   0  0  0  0  0  0  0  0  0  0  0  0
   -3.1667    1.9322    0.3559 H   0  0  0  0  0  0  0  0  0  0  0  0
   -0.9567   -2.0749    0.6465 H   0  0  0  0  0  0  0  0  0  0  0  0
   -1.0418   -1.9129   -1.1252 H   0  0  0  0  0  0  0  0  0  0  0  0
    1.5495   -2.0623   -0.7560 H   0  0  0  0  0  0  0  0  0  0  0  0
    2.4146   -0.5656    1.1869 H   0  0  0  0  0  0  0  0  0  0  0  0
    1.0088   -1.4174    1.9098 H   0  0  0  0  0  0  0  0  0  0  0  0
    0.2410    1.0673    1.7945 H   0  0  0  0  0  0  0  0  0  0  0  0
    0.6598    2.1887   -0.5435 H   0  0  0  0  0  0  0  0  0  0  0  0
    2.2149    1.3666   -0.2730 H   0  0  0  0  0  0  0  0  0  0  0  0
    0.4250    0.0157   -2.1416 H   0  0  0  0  0  0  0  0  0  0  0  0
  2  1  2  0  0  0  0
  3  2  1  0  0  0  0
  4  2  1  0  0  0  0
  5  4  1  0  0  0  0
  6  5  1  0  0  0  0
  7  6  1  0  0  0  0
  8  7  1  0  0  0  0
  8  4  1  0  0  0  0
  9  8  1  0  0  0  0
 10  9  1  0  0  0  0
 10  6  1  0  0  0  0
 10  4  1  0  0  0  0
  3 11  1  0  0  0  0
  5 12  1  0  0  0  0
  5 13  1  0  0  0  0
  6 14  1  0  0  0  0
  7 15  1  0  0  0  0
  7 16  1  0  0  0  0
  8 17  1  0  0  0  0
  9 18  1  0  0  0  0
  9 19  1  0  0  0  0
 10 20  1  0  0  0  0
M  END
>  <energy>
4.5711691814236097

$$$$
