N=C(O)C12CC3CCC45C(Br)CC3(C4Br)C15C(=O)N2
                    3D

 33 37  0  0  0  0  0  0  0  0999 V2000
    3.0286    1.8125   -0.2663 N   0  0  0  0  0  0  0  0  0  0  0  0
    2.2702    0.8089   -0.5171 C   0  0  0  0  0  0  0  0  0  0  0  0
    2.2449    0.2748   -1.7489 O   0  0  0  0  0  0  0  0  0  0  0  0
    1.3800    0.0912    0.5631 C   0  0  0  0  0  0  0  0  0  0  0  0
    0.9528    0.8630    1.7658 C   0  0  0  0  0  0  0  0  0  0  0  0
   -0.5084    0.9217    1.4058 C   0  0  0  0  0  0  0  0  0  0  0  0
   -0.6352    1.9126    0.0416 C   0  0  0  0  0  0  0  0  0  0  0  0
   -0.9434    1.1044   -1.2737 C   0  0  0  0  0  0  0  0  0  0  0  0
   -1.0800   -0.2711   -0.7497 C   0  0  0  0  0  0  0  0  0  0  0  0
   -1.6177   -1.5788   -1.1436 C   0  0  0  0  0  0  0  0  0  0  0  0
   -0.6685   -2.4538   -2.5490 Br  0  0  0  0  0  0  0  0  0  0  0  0
   -1.4383   -2.0909    0.3345 C   0  0  0  0  0  0  0  0  0  0  0  0
   -1.0390   -0.7025    1.2557 C   0  0  0  0  0  0  0  0  0  0  0  0
   -2.1475   -0.0622    0.4446 C   0  0  0  0  0  0  0  0  0  0  0  0
   -4.0454   -0.6258    0.5103 Br  0  0  0  0  0  0  0  0  0  0  0  0
    0.0837   -0.7232    0.2047 C   0  0  0  0  0  0  0  0  0  0  0  0
    1.2083   -1.8758    0.0967 C   0  0  0  0  0  0  0  0  0  0  0  0
    1.4834   -2.9220   -0.4313 O   0  0  0  0  0  0  0  0  0  0  0  0
    1.9860   -1.1962    0.9781 N   0  0  0  0  0  0  0  0  0  0  0  0
    3.5434    2.1230   -1.0894 H   0  0  0  0  0  0  0  0  0  0  0  0
    2.8872    0.6891   -2.3454 H   0  0  0  0  0  0  0  0  0  0  0  0
    1.4025    1.8555    1.8546 H   0  0  0  0  0  0  0  0  0  0  0  0
    1.1028    0.3270    2.7103 H   0  0  0  0  0  0  0  0  0  0  0  0
   -1.0528    1.3888    2.2413 H   0  0  0  0  0  0  0  0  0  0  0  0
    0.2598    2.5313   -0.0828 H   0  0  0  0  0  0  0  0  0  0  0  0
   -1.4394    2.6414    0.2165 H   0  0  0  0  0  0  0  0  0  0  0  0
   -1.8629    1.4747   -1.7416 H   0  0  0  0  0  0  0  0  0  0  0  0
   -0.1369    1.2063   -2.0033 H   0  0  0  0  0  0  0  0  0  0  0  0
   -2.6472   -1.5883   -1.4990 H   0  0  0  0  0  0  0  0  0  0  0  0
   -2.3510   -2.5477    0.7375 H   0  0  0  0  0  0  0  0  0  0  0  0
   -0.7404   -2.9249    0.4741 H   0  0  0  0  0  0  0  0  0  0  0  0
   -2.4523    0.9577    0.6995 H   0  0  0  0  0  0  0  0  0  0  0  0
    2.9726   -1.4206    0.9063 H   0  0  0  0  0  0  0  0  0  0  0  0
  2  1  2  0  0  0  0
  3  2  1  0  0  0  0
  4  2  1  0  0  0  0
  5  4  1  0  0  0  0
  6  5  1  0  0  0  0
  7  6  1  0  0  0  0
  8  7  1  0  0  0  0
  9  8  1  0  0  0  0
 10  9  1  0  0  0  0
 11 10  1  0  0  0  0
 12 10  1  0  0  0  0
 13 12  1  0  0  0  0
 13  6  1  0  0  0  0
 14 13  1  0  0  0  0
 14  9  1  0  0  0  0
 15 14  1  0  0  0  0
 16 13  1  0  0  0  0
 16  4  1  0  0  0  0
 16  9  1  0  0  0  0
 17 16  1  0  0  0  0
 18 17  2  0  0  0  0
 19 17  1  0  0  0  0
 19  4  1  0  0  0  0
  1 20  1  0  0  0  0
  3 21  1  0  0  0  0
  5 22  1  0  0  0  0
  5 23  1  0  0  0  0
  6 24  1  0  0  0  0
  7 25  1  0  0  0  0
  7 26  1  0  0  0  0
  8 27  1  0  0  0  0
  8 28  1  0  0  0  0
 10 29  1  0  0  0  0
 12 30  1  0  0  0  0
 12 31  1  0  0  0  0
 14 32  1  0  0  0  0
 19 33  1  0  0  0  0
M  END
>  <energy>
229.61998432941641

$$$$
