CCS(=O)(=O)OCCC1C2(C(=O)O)C3C4C5C6CC57C4C3(O)C17C62
                    3D

 44 50  0  0  0  0  0  0  0  0999 V2000
   -3.8222    1.3386   -0.2000 C   0  0  0  0  0  0  0  0  0  0  0  0
   -4.7690    0.1589   -0.2949 C   0  0  0  0  0  0  0  0  0  0  0  0
   -4.4820   -1.0728    0.9681 S   0  0  0  0  0  0  0  0  0  0  0  0
   -4.2110   -0.4068    2.2259 O   0  0  0  0  0  0  0  0  0  0  0  0
   -5.5058   -2.0880    0.8536 O   0  0  0  0  0  0  0  0  0  0  0  0
   -3.1023   -1.6802    0.3554 O   0  0  0  0  0  0  0  0  0  0  0  0
   -1.8674   -1.3920    0.9878 C   0  0  0  0  0  0  0  0  0  0  0  0
   -0.7520   -1.7682    0.0154 C   0  0  0  0  0  0  0  0  0  0  0  0
    0.5818   -1.1286    0.4456 C   0  0  0  0  0  0  0  0  0  0  0  0
    1.9065   -1.1015   -0.4216 C   0  0  0  0  0  0  0  0  0  0  0  0
    2.2981   -2.3995   -1.1539 C   0  0  0  0  0  0  0  0  0  0  0  0
    2.0236   -3.5382   -0.7838 O   0  0  0  0  0  0  0  0  0  0  0  0
    2.9919   -2.2002   -2.3038 O   0  0  0  0  0  0  0  0  0  0  0  0
    2.9086   -0.4989    0.6351 C   0  0  0  0  0  0  0  0  0  0  0  0
    3.5501    0.8243    0.2287 C   0  0  0  0  0  0  0  0  0  0  0  0
    2.9171    1.6336   -0.8408 C   0  0  0  0  0  0  0  0  0  0  0  0
    1.8478    1.1706   -1.7585 C   0  0  0  0  0  0  0  0  0  0  0  0
    1.0958    2.4215   -1.1775 C   0  0  0  0  0  0  0  0  0  0  0  0
    1.5311    1.8304    0.1586 C   0  0  0  0  0  0  0  0  0  0  0  0
    2.6093    1.6058    1.1560 C   0  0  0  0  0  0  0  0  0  0  0  0
    1.9414    0.3222    1.5044 C   0  0  0  0  0  0  0  0  0  0  0  0
    1.6981   -0.0101    2.8688 O   0  0  0  0  0  0  0  0  0  0  0  0
    0.7239    0.4843    0.4436 C   0  0  0  0  0  0  0  0  0  0  0  0
    1.1137    0.0047   -1.1282 C   0  0  0  0  0  0  0  0  0  0  0  0
   -3.9244    1.8479    0.7637 H   0  0  0  0  0  0  0  0  0  0  0  0
   -4.0314    2.0641   -0.9913 H   0  0  0  0  0  0  0  0  0  0  0  0
   -2.7786    1.0302   -0.3088 H   0  0  0  0  0  0  0  0  0  0  0  0
   -5.8030    0.4946   -0.1813 H   0  0  0  0  0  0  0  0  0  0  0  0
   -4.6868   -0.3340   -1.2668 H   0  0  0  0  0  0  0  0  0  0  0  0
   -1.8128   -0.3265    1.2288 H   0  0  0  0  0  0  0  0  0  0  0  0
   -1.7899   -1.9632    1.9193 H   0  0  0  0  0  0  0  0  0  0  0  0
   -1.0575   -1.4939   -0.9980 H   0  0  0  0  0  0  0  0  0  0  0  0
   -0.6546   -2.8602   -0.0024 H   0  0  0  0  0  0  0  0  0  0  0  0
    0.7520   -1.6374    1.4120 H   0  0  0  0  0  0  0  0  0  0  0  0
    3.1676   -1.2598   -2.4893 H   0  0  0  0  0  0  0  0  0  0  0  0
    3.5447   -1.2018    1.1774 H   0  0  0  0  0  0  0  0  0  0  0  0
    4.6194    0.9521    0.4115 H   0  0  0  0  0  0  0  0  0  0  0  0
    3.4661    2.5485   -1.1091 H   0  0  0  0  0  0  0  0  0  0  0  0
    2.0611    1.1406   -2.8262 H   0  0  0  0  0  0  0  0  0  0  0  0
    0.0133    2.4335   -1.3593 H   0  0  0  0  0  0  0  0  0  0  0  0
    1.4752    3.4196   -1.4369 H   0  0  0  0  0  0  0  0  0  0  0  0
    2.9332    2.3411    1.8841 H   0  0  0  0  0  0  0  0  0  0  0  0
    0.9927    0.5894    3.1695 H   0  0  0  0  0  0  0  0  0  0  0  0
    0.2864   -0.2951   -1.7809 H   0  0  0  0  0  0  0  0  0  0  0  0
  2  1  1  0  0  0  0
  3  2  1  0  0  0  0
  4  3  2  0  0  0  0
  5  3  2  0  0  0  0
  6  3  1  0  0  0  0
  7  6  1  0  0  0  0
  8  7  1  0  0  0  0
  9  8  1  0  0  0  0
 10  9  1  0  0  0  0
 11 10  1  0  0  0  0
 12 11  2  0  0  0  0
 13 11  1  0  0  0  0
 14 10  1  0  0  0  0
 15 14  1  0  0  0  0
 16 15  1  0  0  0  0
 17 16  1  0  0  0  0
 18 17  1  0  0  0  0
 19 18  1  0  0  0  0
 19 16  1  0  0  0  0
 20 19  1  0  0  0  0
 20 15  1  0  0  0  0
 21 20  1  0  0  0  0
 21 14  1  0  0  0  0
 22 21  1  0  0  0  0
 23 21  1  0  0  0  0
 23  9  1  0  0  0  0
 23 19  1  0  0  0  0
 24 23  1  0  0  0  0
 24 17  1  0  0  0  0
 24 10  1  0  0  0  0
  1 25  1  0  0  0  0
  1 26  1  0  0  0  0
  1 27  1  0  0  0  0
  2 28  1  0  0  0  0
  2 29  1  0  0  0  0
  7 30  1  0  0  0  0
  7 31  1  0  0  0  0
  8 32  1  0  0  0  0
  8 33  1  0  0  0  0
  9 34  1  0  0  0  0
 13 35  1  0  0  0  0
 14 36  1  0  0  0  0
 15 37  1  0  0  0  0
 16 38  1  0  0  0  0
 17 39  1  0  0  0  0
 18 40  1  0  0  0  0
 18 41  1  0  0  0  0
 20 42  1  0  0  0  0
 22 43  1  0  0  0  0
 24 44  1  0  0  0  0
M  END
>  <energy>
147.83468999859116

$$$$
