CC1C2=NC(CCCCCCCC3NCCNC3=O)C1(Cl)C1(F)CC21
                    3D

 54 57  0  0  0  0  0  0  0  0999 V2000
    3.9774    2.7428    2.0916 C   0  0  0  0  0  0  0  0  0  0  0  0
    3.1583    1.6643    1.4063 C   0  0  0  0  0  0  0  0  0  0  0  0
    1.8806    2.0811    0.7092 C   0  0  0  0  0  0  0  0  0  0  0  0
    1.1663    1.0993    0.2177 N   0  0  0  0  0  0  0  0  0  0  0  0
    2.3424    0.2656   -0.3182 C   0  0  0  0  0  0  0  0  0  0  0  0
    2.2811   -1.1166    0.3496 C   0  0  0  0  0  0  0  0  0  0  0  0
    1.5048   -2.1095   -0.5341 C   0  0  0  0  0  0  0  0  0  0  0  0
    0.9498   -3.2872    0.2729 C   0  0  0  0  0  0  0  0  0  0  0  0
   -0.4937   -3.0451    0.7406 C   0  0  0  0  0  0  0  0  0  0  0  0
   -1.5099   -3.3937   -0.3537 C   0  0  0  0  0  0  0  0  0  0  0  0
   -2.9620   -3.1762    0.0812 C   0  0  0  0  0  0  0  0  0  0  0  0
   -3.6795   -1.9987   -0.5992 C   0  0  0  0  0  0  0  0  0  0  0  0
   -3.2711   -0.6117   -0.0691 C   0  0  0  0  0  0  0  0  0  0  0  0
   -4.5098    0.1927    0.1532 N   0  0  0  0  0  0  0  0  0  0  0  0
   -4.1403    1.5149    0.6779 C   0  0  0  0  0  0  0  0  0  0  0  0
   -3.2672    2.2826   -0.3192 C   0  0  0  0  0  0  0  0  0  0  0  0
   -2.1786    1.4867   -0.8446 N   0  0  0  0  0  0  0  0  0  0  0  0
   -2.3024    0.1285   -1.0323 C   0  0  0  0  0  0  0  0  0  0  0  0
   -1.6142   -0.4253   -1.8859 O   0  0  0  0  0  0  0  0  0  0  0  0
    3.5787    1.1973   -0.0007 C   0  0  0  0  0  0  0  0  0  0  0  0
    5.1603    0.4576   -0.1075 Cl  0  0  0  0  0  0  0  0  0  0  0  0
    3.4752    2.5028   -0.8570 C   0  0  0  0  0  0  0  0  0  0  0  0
    4.5953    3.3274   -0.9007 F   0  0  0  0  0  0  0  0  0  0  0  0
    2.3273    2.9049   -1.7537 C   0  0  0  0  0  0  0  0  0  0  0  0
    2.2129    3.1598   -0.2775 C   0  0  0  0  0  0  0  0  0  0  0  0
    3.4821    3.0609    3.0162 H   0  0  0  0  0  0  0  0  0  0  0  0
    4.1226    3.6462    1.4932 H   0  0  0  0  0  0  0  0  0  0  0  0
    4.9675    2.3581    2.3552 H   0  0  0  0  0  0  0  0  0  0  0  0
    2.9827    0.8388    2.1030 H   0  0  0  0  0  0  0  0  0  0  0  0
    2.2343    0.1594   -1.4036 H   0  0  0  0  0  0  0  0  0  0  0  0
    1.8006   -1.0454    1.3327 H   0  0  0  0  0  0  0  0  0  0  0  0
    3.2846   -1.5260    0.5125 H   0  0  0  0  0  0  0  0  0  0  0  0
    0.6977   -1.6033   -1.0752 H   0  0  0  0  0  0  0  0  0  0  0  0
    2.1976   -2.4928   -1.2950 H   0  0  0  0  0  0  0  0  0  0  0  0
    0.9876   -4.1970   -0.3380 H   0  0  0  0  0  0  0  0  0  0  0  0
    1.5882   -3.4760    1.1446 H   0  0  0  0  0  0  0  0  0  0  0  0
   -0.6848   -3.6900    1.6082 H   0  0  0  0  0  0  0  0  0  0  0  0
   -0.6195   -2.0085    1.0740 H   0  0  0  0  0  0  0  0  0  0  0  0
   -1.2914   -2.8599   -1.2825 H   0  0  0  0  0  0  0  0  0  0  0  0
   -1.3878   -4.4599   -0.5860 H   0  0  0  0  0  0  0  0  0  0  0  0
   -3.0462   -3.0906    1.1721 H   0  0  0  0  0  0  0  0  0  0  0  0
   -3.5226   -4.0814   -0.1902 H   0  0  0  0  0  0  0  0  0  0  0  0
   -4.7518   -2.1580   -0.4159 H   0  0  0  0  0  0  0  0  0  0  0  0
   -3.5559   -2.0655   -1.6877 H   0  0  0  0  0  0  0  0  0  0  0  0
   -2.7550   -0.7198    0.8930 H   0  0  0  0  0  0  0  0  0  0  0  0
   -4.9734    0.3065   -0.7485 H   0  0  0  0  0  0  0  0  0  0  0  0
   -3.6131    1.3953    1.6328 H   0  0  0  0  0  0  0  0  0  0  0  0
   -5.0491    2.0888    0.8897 H   0  0  0  0  0  0  0  0  0  0  0  0
   -2.8395    3.1760    0.1446 H   0  0  0  0  0  0  0  0  0  0  0  0
   -3.8719    2.5987   -1.1778 H   0  0  0  0  0  0  0  0  0  0  0  0
   -1.5259    1.9149   -1.4903 H   0  0  0  0  0  0  0  0  0  0  0  0
    2.4881    3.7594   -2.4044 H   0  0  0  0  0  0  0  0  0  0  0  0
    1.6976    2.1494   -2.2073 H   0  0  0  0  0  0  0  0  0  0  0  0
    2.2752    4.1777    0.0838 H   0  0  0  0  0  0  0  0  0  0  0  0
  2  1  1  0  0  0  0
  3  2  1  0  0  0  0
  4  3  2  0  0  0  0
  5  4  1  0  0  0  0
  6  5  1  0  0  0  0
  7  6  1  0  0  0  0
  8  7  1  0  0  0  0
  9  8  1  0  0  0  0
 10  9  1  0  0  0  0
 11 10  1  0  0  0  0
 12 11  1  0  0  0  0
 13 12  1  0  0  0  0
 14 13  1  0  0  0  0
 15 14  1  0  0  0  0
 16 15  1  0  0  0  0
 17 16  1  0  0  0  0
 18 17  1  0  0  0  0
 18 13  1  0  0  0  0
 19 18  2  0  0  0  0
 20  5  1  0  0  0  0
 20  2  1  0  0  0  0
 21 20  1  0  0  0  0
 22 20  1  0  0  0  0
 23 22  1  0  0  0  0
 24 22  1  0  0  0  0
 25 24  1  0  0  0  0
 25  3  1  0  0  0  0
 25 22  1  0  0  0  0
  1 26  1  0  0  0  0
  1 27  1  0  0  0  0
  1 28  1  0  0  0  0
  2 29  1  0  0  0  0
  5 30  1  0  0  0  0
  6 31  1  0  0  0  0
  6 32  1  0  0  0  0
  7 33  1  0  0  0  0
  7 34  1  0  0  0  0
  8 35  1  0  0  0  0
  8 36  1  0  0  0  0
  9 37  1  0  0  0  0
  9 38  1  0  0  0  0
 10 39  1  0  0  0  0
 10 40  1  0  0  0  0
 11 41  1  0  0  0  0
 11 42  1  0  0  0  0
 12 43  1  0  0  0  0
 12 44  1  0  0  0  0
 13 45  1  0  0  0  0
 14 46  1  0  0  0  0
 15 47  1  0  0  0  0
 15 48  1  0  0  0  0
 16 49  1  0  0  0  0
 16 50  1  0  0  0  0
 17 51  1  0  0  0  0
 24 52  1  0  0  0  0
 24 53  1  0  0  0  0
 25 54  1  0  0  0  0
M  END
>  <energy>
184.33361289802883

$$$$
