C=CCc1cc(C2(CC)C3C4OC(C)(C)C(O)C(O)C4C34COC2(O)O4)cc(OC)c1OC
                    3D

 67 71  0  0  0  0  0  0  0  0999 V2000
    2.3946   -1.3834   -4.7806 C   0  0  0  0  0  0  0  0  0  0  0  0
    2.9110   -0.6333   -3.7977 C   0  0  0  0  0  0  0  0  0  0  0  0
    2.1254    0.3655   -2.9958 C   0  0  0  0  0  0  0  0  0  0  0  0
    2.1671    0.0705   -1.5127 C   0  0  0  0  0  0  0  0  0  0  0  0
    1.1789   -0.7561   -0.9396 C   0  0  0  0  0  0  0  0  0  0  0  0
    1.1763   -1.1025    0.4275 C   0  0  0  0  0  0  0  0  0  0  0  0
    0.0740   -2.0266    1.0158 C   0  0  0  0  0  0  0  0  0  0  0  0
    0.2315   -3.5059    0.5488 C   0  0  0  0  0  0  0  0  0  0  0  0
    0.2331   -3.7737   -0.9523 C   0  0  0  0  0  0  0  0  0  0  0  0
   -1.3649   -1.4648    0.6474 C   0  0  0  0  0  0  0  0  0  0  0  0
   -1.7164   -0.0115    0.2398 C   0  0  0  0  0  0  0  0  0  0  0  0
   -2.4548    0.2972   -0.9574 O   0  0  0  0  0  0  0  0  0  0  0  0
   -2.9702    1.6572   -0.9785 C   0  0  0  0  0  0  0  0  0  0  0  0
   -4.0988    1.6797   -2.0204 C   0  0  0  0  0  0  0  0  0  0  0  0
   -1.8372    2.5659   -1.4782 C   0  0  0  0  0  0  0  0  0  0  0  0
   -3.5603    2.1098    0.4164 C   0  0  0  0  0  0  0  0  0  0  0  0
   -3.6619    3.5340    0.5326 O   0  0  0  0  0  0  0  0  0  0  0  0
   -2.7648    1.5720    1.6414 C   0  0  0  0  0  0  0  0  0  0  0  0
   -3.4770    1.8517    2.8464 O   0  0  0  0  0  0  0  0  0  0  0  0
   -2.6683    0.0776    1.4508 C   0  0  0  0  0  0  0  0  0  0  0  0
   -1.8179   -1.0014    2.0995 C   0  0  0  0  0  0  0  0  0  0  0  0
   -2.3229   -2.2313    2.8119 C   0  0  0  0  0  0  0  0  0  0  0  0
   -1.0903   -2.9473    3.0486 O   0  0  0  0  0  0  0  0  0  0  0  0
   -0.0540   -2.0253    2.6208 C   0  0  0  0  0  0  0  0  0  0  0  0
    1.0919   -2.2908    3.3687 O   0  0  0  0  0  0  0  0  0  0  0  0
   -0.6125   -0.7295    2.8283 O   0  0  0  0  0  0  0  0  0  0  0  0
    2.2276   -0.5749    1.2054 C   0  0  0  0  0  0  0  0  0  0  0  0
    3.2225    0.2517    0.6572 C   0  0  0  0  0  0  0  0  0  0  0  0
    4.3053    0.6614    1.3957 O   0  0  0  0  0  0  0  0  0  0  0  0
    3.9633    1.2671    2.6379 C   0  0  0  0  0  0  0  0  0  0  0  0
    3.1885    0.5838   -0.7003 C   0  0  0  0  0  0  0  0  0  0  0  0
    4.1460    1.3493   -1.3177 O   0  0  0  0  0  0  0  0  0  0  0  0
    4.3908    2.5991   -0.6739 C   0  0  0  0  0  0  0  0  0  0  0  0
    1.3486   -1.3133   -5.0593 H   0  0  0  0  0  0  0  0  0  0  0  0
    3.0172   -2.0914   -5.3195 H   0  0  0  0  0  0  0  0  0  0  0  0
    3.9660   -0.7328   -3.5480 H   0  0  0  0  0  0  0  0  0  0  0  0
    2.5153    1.3723   -3.1914 H   0  0  0  0  0  0  0  0  0  0  0  0
    1.0793    0.3988   -3.3269 H   0  0  0  0  0  0  0  0  0  0  0  0
    0.3893   -1.1227   -1.5938 H   0  0  0  0  0  0  0  0  0  0  0  0
   -0.5880   -4.1079    0.9633 H   0  0  0  0  0  0  0  0  0  0  0  0
    1.1570   -3.9183    0.9717 H   0  0  0  0  0  0  0  0  0  0  0  0
    0.0021   -4.8281   -1.1418 H   0  0  0  0  0  0  0  0  0  0  0  0
    1.2209   -3.5807   -1.3840 H   0  0  0  0  0  0  0  0  0  0  0  0
   -0.5158   -3.1796   -1.4837 H   0  0  0  0  0  0  0  0  0  0  0  0
   -2.0138   -2.2054    0.1668 H   0  0  0  0  0  0  0  0  0  0  0  0
   -0.8374    0.6385    0.3096 H   0  0  0  0  0  0  0  0  0  0  0  0
   -4.5832    2.6620   -2.0738 H   0  0  0  0  0  0  0  0  0  0  0  0
   -3.7255    1.4298   -3.0220 H   0  0  0  0  0  0  0  0  0  0  0  0
   -4.8652    0.9327   -1.7798 H   0  0  0  0  0  0  0  0  0  0  0  0
   -1.0351    2.6591   -0.7366 H   0  0  0  0  0  0  0  0  0  0  0  0
   -1.3775    2.1425   -2.3827 H   0  0  0  0  0  0  0  0  0  0  0  0
   -2.1959    3.5734   -1.7177 H   0  0  0  0  0  0  0  0  0  0  0  0
   -4.5858    1.7203    0.5132 H   0  0  0  0  0  0  0  0  0  0  0  0
   -4.2598    3.8418   -0.1692 H   0  0  0  0  0  0  0  0  0  0  0  0
   -1.7880    2.0695    1.7206 H   0  0  0  0  0  0  0  0  0  0  0  0
   -3.6035    2.8232    2.8444 H   0  0  0  0  0  0  0  0  0  0  0  0
   -3.6731   -0.3394    1.2630 H   0  0  0  0  0  0  0  0  0  0  0  0
   -3.0045   -2.8514    2.2245 H   0  0  0  0  0  0  0  0  0  0  0  0
   -2.7797   -1.9946    3.7779 H   0  0  0  0  0  0  0  0  0  0  0  0
    0.7374   -2.3585    4.2678 H   0  0  0  0  0  0  0  0  0  0  0  0
    2.3172   -0.8284    2.2546 H   0  0  0  0  0  0  0  0  0  0  0  0
    3.0518    1.8713    2.5710 H   0  0  0  0  0  0  0  0  0  0  0  0
    4.7853    1.9359    2.9108 H   0  0  0  0  0  0  0  0  0  0  0  0
    3.8742    0.5111    3.4221 H   0  0  0  0  0  0  0  0  0  0  0  0
    3.5193    2.9833   -0.1298 H   0  0  0  0  0  0  0  0  0  0  0  0
    4.6410    3.3286   -1.4506 H   0  0  0  0  0  0  0  0  0  0  0  0
    5.2547    2.5232   -0.0066 H   0  0  0  0  0  0  0  0  0  0  0  0
  2  1  2  0  0  0  0
  3  2  1  0  0  0  0
  4  3  1  0  0  0  0
  5  4  2  0  0  0  0
  6  5  1  0  0  0  0
  7  6  1  0  0  0  0
  8  7  1  0  0  0  0
  9  8  1  0  0  0  0
 10  7  1  0  0  0  0
 11 10  1  0  0  0  0
 12 11  1  0  0  0  0
 13 12  1  0  0  0  0
 14 13  1  0  0  0  0
 15 13  1  0  0  0  0
 16 13  1  0  0  0  0
 17 16  1  0  0  0  0
 18 16  1  0  0  0  0
 19 18  1  0  0  0  0
 20 18  1  0  0  0  0
 20 11  1  0  0  0  0
 21 20  1  0  0  0  0
 21 10  1  0  0  0  0
 22 21  1  0  0  0  0
 23 22  1  0  0  0  0
 24 23  1  0  0  0  0
 24  7  1  0  0  0  0
 25 24  1  0  0  0  0
 26 24  1  0  0  0  0
 26 21  1  0  0  0  0
 27  6  2  0  0  0  0
 28 27  1  0  0  0  0
 29 28  1  0  0  0  0
 30 29  1  0  0  0  0
 31 28  2  0  0  0  0
 31  4  1  0  0  0  0
 32 31  1  0  0  0  0
 33 32  1  0  0  0  0
  1 34  1  0  0  0  0
  1 35  1  0  0  0  0
  2 36  1  0  0  0  0
  3 37  1  0  0  0  0
  3 38  1  0  0  0  0
  5 39  1  0  0  0  0
  8 40  1  0  0  0  0
  8 41  1  0  0  0  0
  9 42  1  0  0  0  0
  9 43  1  0  0  0  0
  9 44  1  0  0  0  0
 10 45  1  0  0  0  0
 11 46  1  0  0  0  0
 14 47  1  0  0  0  0
 14 48  1  0  0  0  0
 14 49  1  0  0  0  0
 15 50  1  0  0  0  0
 15 51  1  0  0  0  0
 15 52  1  0  0  0  0
 16 53  1  0  0  0  0
 17 54  1  0  0  0  0
 18 55  1  0  0  0  0
 19 56  1  0  0  0  0
 20 57  1  0  0  0  0
 22 58  1  0  0  0  0
 22 59  1  0  0  0  0
 25 60  1  0  0  0  0
 27 61  1  0  0  0  0
 30 62  1  0  0  0  0
 30 63  1  0  0  0  0
 30 64  1  0  0  0  0
 33 65  1  0  0  0  0
 33 66  1  0  0  0  0
 33 67  1  0  0  0  0
M  END
>  <energy>
143.72457180181291

$$$$
