COC(C)C(O)CNC(=S)C1CC23CCC4C(C)(CC(O)C5C4(C)CCCC52C)C1O3
                    3D

 72 76  0  0  0  0  0  0  0  0999 V2000
    3.9804   -2.2923   -2.6600 C   0  0  0  0  0  0  0  0  0  0  0  0
    3.8625   -0.9038   -2.3808 O   0  0  0  0  0  0  0  0  0  0  0  0
    4.9988   -0.3668   -1.6896 C   0  0  0  0  0  0  0  0  0  0  0  0
    5.9522    0.2390   -2.7209 C   0  0  0  0  0  0  0  0  0  0  0  0
    4.5177    0.6736   -0.6403 C   0  0  0  0  0  0  0  0  0  0  0  0
    3.9175    1.8184   -1.2584 O   0  0  0  0  0  0  0  0  0  0  0  0
    3.4901    0.0419    0.3221 C   0  0  0  0  0  0  0  0  0  0  0  0
    3.2599    0.8648    1.5130 N   0  0  0  0  0  0  0  0  0  0  0  0
    2.1249    1.4574    1.9908 C   0  0  0  0  0  0  0  0  0  0  0  0
    2.3429    2.3338    3.4123 S   0  0  0  0  0  0  0  0  0  0  0  0
    0.7623    1.2236    1.3105 C   0  0  0  0  0  0  0  0  0  0  0  0
   -0.2923    2.4049    1.4841 C   0  0  0  0  0  0  0  0  0  0  0  0
   -1.5768    1.6087    1.3571 C   0  0  0  0  0  0  0  0  0  0  0  0
   -2.8436    1.6037    2.1871 C   0  0  0  0  0  0  0  0  0  0  0  0
   -3.2515    0.0510    2.3283 C   0  0  0  0  0  0  0  0  0  0  0  0
   -2.5172   -1.0333    1.3586 C   0  0  0  0  0  0  0  0  0  0  0  0
   -0.7962   -1.2079    1.4222 C   0  0  0  0  0  0  0  0  0  0  0  0
   -0.5882   -2.3628    2.4507 C   0  0  0  0  0  0  0  0  0  0  0  0
   -0.1722   -1.6661    0.1091 C   0  0  0  0  0  0  0  0  0  0  0  0
   -0.6074   -0.8073   -1.0634 C   0  0  0  0  0  0  0  0  0  0  0  0
   -0.6531   -1.6486   -2.2231 O   0  0  0  0  0  0  0  0  0  0  0  0
   -1.9810   -0.1297   -0.8758 C   0  0  0  0  0  0  0  0  0  0  0  0
   -3.0094   -0.9888   -0.1188 C   0  0  0  0  0  0  0  0  0  0  0  0
   -3.1322   -2.4422   -0.6663 C   0  0  0  0  0  0  0  0  0  0  0  0
   -4.4338   -0.4141   -0.3815 C   0  0  0  0  0  0  0  0  0  0  0  0
   -4.6272    1.0832   -0.2526 C   0  0  0  0  0  0  0  0  0  0  0  0
   -3.4044    1.9116   -0.6342 C   0  0  0  0  0  0  0  0  0  0  0  0
   -1.9582    1.3307   -0.2736 C   0  0  0  0  0  0  0  0  0  0  0  0
   -1.0762    2.2134   -1.2332 C   0  0  0  0  0  0  0  0  0  0  0  0
    0.0450    0.0057    1.9569 C   0  0  0  0  0  0  0  0  0  0  0  0
   -1.0571    0.7016    2.3824 O   0  0  0  0  0  0  0  0  0  0  0  0
    4.9078   -2.5163   -3.1964 H   0  0  0  0  0  0  0  0  0  0  0  0
    3.9388   -2.8663   -1.7282 H   0  0  0  0  0  0  0  0  0  0  0  0
    3.1368   -2.5974   -3.2826 H   0  0  0  0  0  0  0  0  0  0  0  0
    5.5201   -1.1703   -1.1504 H   0  0  0  0  0  0  0  0  0  0  0  0
    6.3414   -0.5352   -3.3900 H   0  0  0  0  0  0  0  0  0  0  0  0
    6.8037    0.7275   -2.2373 H   0  0  0  0  0  0  0  0  0  0  0  0
    5.4385    0.9635   -3.3623 H   0  0  0  0  0  0  0  0  0  0  0  0
    5.3859    1.0282   -0.0716 H   0  0  0  0  0  0  0  0  0  0  0  0
    4.5956    2.2603   -1.7938 H   0  0  0  0  0  0  0  0  0  0  0  0
    2.5500   -0.1398   -0.1966 H   0  0  0  0  0  0  0  0  0  0  0  0
    3.8773   -0.9142    0.6985 H   0  0  0  0  0  0  0  0  0  0  0  0
    4.0799    1.0832    2.0670 H   0  0  0  0  0  0  0  0  0  0  0  0
    0.9637    1.0487    0.2615 H   0  0  0  0  0  0  0  0  0  0  0  0
   -0.1382    3.2308    0.7900 H   0  0  0  0  0  0  0  0  0  0  0  0
   -0.2345    2.8628    2.4784 H   0  0  0  0  0  0  0  0  0  0  0  0
   -2.6682    1.9847    3.2093 H   0  0  0  0  0  0  0  0  0  0  0  0
   -3.6383    2.2520    1.8293 H   0  0  0  0  0  0  0  0  0  0  0  0
   -4.3365   -0.0643    2.2903 H   0  0  0  0  0  0  0  0  0  0  0  0
   -3.0153   -0.2525    3.3614 H   0  0  0  0  0  0  0  0  0  0  0  0
   -2.9045   -1.9804    1.7611 H   0  0  0  0  0  0  0  0  0  0  0  0
   -0.9813   -2.0878    3.4355 H   0  0  0  0  0  0  0  0  0  0  0  0
    0.4715   -2.6111    2.5694 H   0  0  0  0  0  0  0  0  0  0  0  0
   -1.1062   -3.2742    2.1290 H   0  0  0  0  0  0  0  0  0  0  0  0
   -0.3750   -2.7269   -0.0771 H   0  0  0  0  0  0  0  0  0  0  0  0
    0.9233   -1.6375    0.1793 H   0  0  0  0  0  0  0  0  0  0  0  0
    0.1634   -0.0759   -1.3027 H   0  0  0  0  0  0  0  0  0  0  0  0
    0.2702   -1.8751   -2.4509 H   0  0  0  0  0  0  0  0  0  0  0  0
   -2.3739   -0.0338   -1.9018 H   0  0  0  0  0  0  0  0  0  0  0  0
   -4.0274   -2.9328   -0.2616 H   0  0  0  0  0  0  0  0  0  0  0  0
   -3.2335   -2.4491   -1.7564 H   0  0  0  0  0  0  0  0  0  0  0  0
   -2.3046   -3.0961   -0.4040 H   0  0  0  0  0  0  0  0  0  0  0  0
   -5.1816   -0.9321    0.2332 H   0  0  0  0  0  0  0  0  0  0  0  0
   -4.7103   -0.6552   -1.4191 H   0  0  0  0  0  0  0  0  0  0  0  0
   -4.9967    1.3239    0.7433 H   0  0  0  0  0  0  0  0  0  0  0  0
   -5.4636    1.3883   -0.8947 H   0  0  0  0  0  0  0  0  0  0  0  0
   -3.5148    2.9399   -0.2664 H   0  0  0  0  0  0  0  0  0  0  0  0
   -3.4724    2.0045   -1.7298 H   0  0  0  0  0  0  0  0  0  0  0  0
   -1.2557    3.2830   -1.0744 H   0  0  0  0  0  0  0  0  0  0  0  0
   -1.3221    2.0143   -2.2851 H   0  0  0  0  0  0  0  0  0  0  0  0
   -0.0040    2.0455   -1.1517 H   0  0  0  0  0  0  0  0  0  0  0  0
    0.6145   -0.3203    2.8356 H   0  0  0  0  0  0  0  0  0  0  0  0
  2  1  1  0  0  0  0
  3  2  1  0  0  0  0
  4  3  1  0  0  0  0
  5  3  1  0  0  0  0
  6  5  1  0  0  0  0
  7  5  1  0  0  0  0
  8  7  1  0  0  0  0
  9  8  1  0  0  0  0
 10  9  2  0  0  0  0
 11  9  1  0  0  0  0
 12 11  1  0  0  0  0
 13 12  1  0  0  0  0
 14 13  1  0  0  0  0
 15 14  1  0  0  0  0
 16 15  1  0  0  0  0
 17 16  1  0  0  0  0
 18 17  1  0  0  0  0
 19 17  1  0  0  0  0
 20 19  1  0  0  0  0
 21 20  1  0  0  0  0
 22 20  1  0  0  0  0
 23 22  1  0  0  0  0
 23 16  1  0  0  0  0
 24 23  1  0  0  0  0
 25 23  1  0  0  0  0
 26 25  1  0  0  0  0
 27 26  1  0  0  0  0
 28 27  1  0  0  0  0
 28 22  1  0  0  0  0
 28 13  1  0  0  0  0
 29 28  1  0  0  0  0
 30 17  1  0  0  0  0
 30 11  1  0  0  0  0
 31 30  1  0  0  0  0
 31 13  1  0  0  0  0
  1 32  1  0  0  0  0
  1 33  1  0  0  0  0
  1 34  1  0  0  0  0
  3 35  1  0  0  0  0
  4 36  1  0  0  0  0
  4 37  1  0  0  0  0
  4 38  1  0  0  0  0
  5 39  1  0  0  0  0
  6 40  1  0  0  0  0
  7 41  1  0  0  0  0
  7 42  1  0  0  0  0
  8 43  1  0  0  0  0
 11 44  1  0  0  0  0
 12 45  1  0  0  0  0
 12 46  1  0  0  0  0
 14 47  1  0  0  0  0
 14 48  1  0  0  0  0
 15 49  1  0  0  0  0
 15 50  1  0  0  0  0
 16 51  1  0  0  0  0
 18 52  1  0  0  0  0
 18 53  1  0  0  0  0
 18 54  1  0  0  0  0
 19 55  1  0  0  0  0
 19 56  1  0  0  0  0
 20 57  1  0  0  0  0
 21 58  1  0  0  0  0
 22 59  1  0  0  0  0
 24 60  1  0  0  0  0
 24 61  1  0  0  0  0
 24 62  1  0  0  0  0
 25 63  1  0  0  0  0
 25 64  1  0  0  0  0
 26 65  1  0  0  0  0
 26 66  1  0  0  0  0
 27 67  1  0  0  0  0
 27 68  1  0  0  0  0
 29 69  1  0  0  0  0
 29 70  1  0  0  0  0
 29 71  1  0  0  0  0
 30 72  1  0  0  0  0
M  END
>  <energy>
294.92965700580265

$$$$
