CCCNC(=O)N1C(O)C2C3C1C1(CNC(=O)CCC[NH+]=[N-])C(=O)NCC3C21C[N+](C)(C)C
                    3D

 71 74  0  0  0  0  0  0  0  0999 V2000
   -5.2344    0.7656    2.0308 C   0  0  0  0  0  0  0  0  0  0  0  0
   -5.6904    0.0551    0.7669 C   0  0  0  0  0  0  0  0  0  0  0  0
   -4.6602   -0.0722   -0.3527 C   0  0  0  0  0  0  0  0  0  0  0  0
   -3.5170   -0.8329    0.0967 N   0  0  0  0  0  0  0  0  0  0  0  0
   -2.6901   -1.4197   -0.8118 C   0  0  0  0  0  0  0  0  0  0  0  0
   -2.9591   -1.5399   -2.0058 O   0  0  0  0  0  0  0  0  0  0  0  0
   -1.4671   -1.7627   -0.2917 N   0  0  0  0  0  0  0  0  0  0  0  0
   -0.9393   -1.4390    1.0172 C   0  0  0  0  0  0  0  0  0  0  0  0
   -1.6776   -2.1498    1.9906 O   0  0  0  0  0  0  0  0  0  0  0  0
    0.4572   -2.0190    0.9077 C   0  0  0  0  0  0  0  0  0  0  0  0
    0.2139   -3.2405   -0.0317 C   0  0  0  0  0  0  0  0  0  0  0  0
   -0.4931   -2.4240   -1.1308 C   0  0  0  0  0  0  0  0  0  0  0  0
    0.6986   -1.5218   -1.5791 C   0  0  0  0  0  0  0  0  0  0  0  0
    0.3215   -0.1054   -2.0581 C   0  0  0  0  0  0  0  0  0  0  0  0
   -0.4080    0.7802   -1.1566 N   0  0  0  0  0  0  0  0  0  0  0  0
   -0.4102    2.1336   -1.4572 C   0  0  0  0  0  0  0  0  0  0  0  0
    0.2928    2.5939   -2.3649 O   0  0  0  0  0  0  0  0  0  0  0  0
   -1.3145    3.0146   -0.6052 C   0  0  0  0  0  0  0  0  0  0  0  0
   -0.5448    4.2119   -0.0391 C   0  0  0  0  0  0  0  0  0  0  0  0
    0.3349    3.8327    1.1631 C   0  0  0  0  0  0  0  0  0  0  0  0
    1.7280    4.3032    0.9570 N   0  3  0  0  0  0  0  0  0  0  0  0
    2.6589    3.6988    1.5389 N   0  5  0  0  0  0  0  0  0  0  0  0
    1.4009   -2.2208   -2.7645 C   0  0  0  0  0  0  0  0  0  0  0  0
    1.5975   -1.6934   -3.8616 O   0  0  0  0  0  0  0  0  0  0  0  0
    1.7631   -3.5258   -2.5564 N   0  0  0  0  0  0  0  0  0  0  0  0
    2.3290   -4.0206   -1.3260 C   0  0  0  0  0  0  0  0  0  0  0  0
    1.7436   -3.2316   -0.1827 C   0  0  0  0  0  0  0  0  0  0  0  0
    1.5119   -1.6385   -0.2611 C   0  0  0  0  0  0  0  0  0  0  0  0
    2.8895   -0.9752   -0.1145 C   0  0  0  0  0  0  0  0  0  0  0  0
    3.1416    0.3293    0.6237 N   0  3  0  0  0  0  0  0  0  0  0  0
    4.5080    0.3236    1.3043 C   0  0  0  0  0  0  0  0  0  0  0  0
    3.2207    1.4983   -0.3619 C   0  0  0  0  0  0  0  0  0  0  0  0
    2.1236    0.6893    1.6877 C   0  0  0  0  0  0  0  0  0  0  0  0
   -4.4601    0.1869    2.5496 H   0  0  0  0  0  0  0  0  0  0  0  0
   -6.0879    0.8317    2.7217 H   0  0  0  0  0  0  0  0  0  0  0  0
   -4.8671    1.7792    1.8397 H   0  0  0  0  0  0  0  0  0  0  0  0
   -5.9945   -0.9502    1.0720 H   0  0  0  0  0  0  0  0  0  0  0  0
   -6.5883    0.5385    0.3660 H   0  0  0  0  0  0  0  0  0  0  0  0
   -5.1064   -0.5776   -1.2237 H   0  0  0  0  0  0  0  0  0  0  0  0
   -4.2693    0.9069   -0.6871 H   0  0  0  0  0  0  0  0  0  0  0  0
   -3.6245   -1.4023    0.9234 H   0  0  0  0  0  0  0  0  0  0  0  0
   -0.9583   -0.3691    1.2423 H   0  0  0  0  0  0  0  0  0  0  0  0
   -1.4650   -1.7612    2.8576 H   0  0  0  0  0  0  0  0  0  0  0  0
    0.9589   -2.2225    1.8636 H   0  0  0  0  0  0  0  0  0  0  0  0
   -0.2621   -4.1238    0.4092 H   0  0  0  0  0  0  0  0  0  0  0  0
   -0.9299   -3.0191   -1.9373 H   0  0  0  0  0  0  0  0  0  0  0  0
    1.2427    0.4104   -2.3642 H   0  0  0  0  0  0  0  0  0  0  0  0
   -0.2925   -0.1730   -2.9719 H   0  0  0  0  0  0  0  0  0  0  0  0
   -1.3031    0.4468   -0.8164 H   0  0  0  0  0  0  0  0  0  0  0  0
   -1.8224    2.4516    0.1909 H   0  0  0  0  0  0  0  0  0  0  0  0
   -2.0870    3.4001   -1.2814 H   0  0  0  0  0  0  0  0  0  0  0  0
    0.0967    4.6569   -0.8102 H   0  0  0  0  0  0  0  0  0  0  0  0
   -1.2675    4.9871    0.2631 H   0  0  0  0  0  0  0  0  0  0  0  0
   -0.0367    4.3270    2.0701 H   0  0  0  0  0  0  0  0  0  0  0  0
    0.2790    2.7542    1.3524 H   0  0  0  0  0  0  0  0  0  0  0  0
    1.8598    5.3091    0.8913 H   0  0  0  0  0  0  0  0  0  0  0  0
    1.4123   -4.1815   -3.2586 H   0  0  0  0  0  0  0  0  0  0  0  0
    2.0854   -5.0848   -1.2257 H   0  0  0  0  0  0  0  0  0  0  0  0
    3.4262   -3.9060   -1.3564 H   0  0  0  0  0  0  0  0  0  0  0  0
    2.2499   -3.5706    0.7364 H   0  0  0  0  0  0  0  0  0  0  0  0
    3.5245   -1.6833    0.4312 H   0  0  0  0  0  0  0  0  0  0  0  0
    3.3560   -0.8674   -1.1044 H   0  0  0  0  0  0  0  0  0  0  0  0
    5.2624    0.1021    0.5447 H   0  0  0  0  0  0  0  0  0  0  0  0
    4.7142    1.2994    1.7540 H   0  0  0  0  0  0  0  0  0  0  0  0
    4.5071   -0.4365    2.0928 H   0  0  0  0  0  0  0  0  0  0  0  0
    3.8460    1.2109   -1.2155 H   0  0  0  0  0  0  0  0  0  0  0  0
    3.7892    2.2784    0.1360 H   0  0  0  0  0  0  0  0  0  0  0  0
    2.2127    1.7813   -0.6629 H   0  0  0  0  0  0  0  0  0  0  0  0
    1.1477    0.7943    1.2200 H   0  0  0  0  0  0  0  0  0  0  0  0
    2.1053   -0.1213    2.4212 H   0  0  0  0  0  0  0  0  0  0  0  0
    2.4179    1.6005    2.1954 H   0  0  0  0  0  0  0  0  0  0  0  0
  2  1  1  0  0  0  0
  3  2  1  0  0  0  0
  4  3  1  0  0  0  0
  5  4  1  0  0  0  0
  6  5  2  0  0  0  0
  7  5  1  0  0  0  0
  8  7  1  0  0  0  0
  9  8  1  0  0  0  0
 10  8  1  0  0  0  0
 11 10  1  0  0  0  0
 12 11  1  0  0  0  0
 12  7  1  0  0  0  0
 13 12  1  0  0  0  0
 14 13  1  0  0  0  0
 15 14  1  0  0  0  0
 16 15  1  0  0  0  0
 17 16  2  0  0  0  0
 18 16  1  0  0  0  0
 19 18  1  0  0  0  0
 20 19  1  0  0  0  0
 21 20  1  0  0  0  0
 22 21  2  0  0  0  0
 23 13  1  0  0  0  0
 24 23  2  0  0  0  0
 25 23  1  0  0  0  0
 26 25  1  0  0  0  0
 27 26  1  0  0  0  0
 27 11  1  0  0  0  0
 28 27  1  0  0  0  0
 28 10  1  0  0  0  0
 28 13  1  0  0  0  0
 29 28  1  0  0  0  0
 30 29  1  0  0  0  0
 31 30  1  0  0  0  0
 32 30  1  0  0  0  0
 33 30  1  0  0  0  0
  1 34  1  0  0  0  0
  1 35  1  0  0  0  0
  1 36  1  0  0  0  0
  2 37  1  0  0  0  0
  2 38  1  0  0  0  0
  3 39  1  0  0  0  0
  3 40  1  0  0  0  0
  4 41  1  0  0  0  0
  8 42  1  0  0  0  0
  9 43  1  0  0  0  0
 10 44  1  0  0  0  0
 11 45  1  0  0  0  0
 12 46  1  0  0  0  0
 14 47  1  0  0  0  0
 14 48  1  0  0  0  0
 15 49  1  0  0  0  0
 18 50  1  0  0  0  0
 18 51  1  0  0  0  0
 19 52  1  0  0  0  0
 19 53  1  0  0  0  0
 20 54  1  0  0  0  0
 20 55  1  0  0  0  0
 21 56  1  0  0  0  0
 25 57  1  0  0  0  0
 26 58  1  0  0  0  0
 26 59  1  0  0  0  0
 27 60  1  0  0  0  0
 29 61  1  0  0  0  0
 29 62  1  0  0  0  0
 31 63  1  0  0  0  0
 31 64  1  0  0  0  0
 31 65  1  0  0  0  0
 32 66  1  0  0  0  0
 32 67  1  0  0  0  0
 32 68  1  0  0  0  0
 33 69  1  0  0  0  0
 33 70  1  0  0  0  0
 33 71  1  0  0  0  0
M  CHG  3  21   1  22  -1  30   1
M  END
>  <energy>
-146.3425210687291

$$$$
