CC=C1C(OC)C2OC34CC=C(C(C)CC3)C1(O2)C(OC(C)=O)OC4
                    3D

 51 54  0  0  0  0  0  0  0  0999 V2000
   -1.4210   -2.8600   -1.6488 C   0  0  0  0  0  0  0  0  0  0  0  0
   -2.1507   -1.7407   -0.9873 C   0  0  0  0  0  0  0  0  0  0  0  0
   -1.6505   -0.7957   -0.1708 C   0  0  0  0  0  0  0  0  0  0  0  0
   -2.5359    0.3404    0.4312 C   0  0  0  0  0  0  0  0  0  0  0  0
   -3.2105    1.1147   -0.5412 O   0  0  0  0  0  0  0  0  0  0  0  0
   -4.2434    1.9071    0.0358 C   0  0  0  0  0  0  0  0  0  0  0  0
   -1.6321    1.0871    1.4674 C   0  0  0  0  0  0  0  0  0  0  0  0
   -0.8564    2.3439    1.4141 O   0  0  0  0  0  0  0  0  0  0  0  0
    0.3934    2.1019    0.7297 C   0  0  0  0  0  0  0  0  0  0  0  0
   -0.2830    2.1675   -0.7560 C   0  0  0  0  0  0  0  0  0  0  0  0
   -0.0189    1.0189   -1.6436 C   0  0  0  0  0  0  0  0  0  0  0  0
    0.6443    0.1610   -0.8662 C   0  0  0  0  0  0  0  0  0  0  0  0
    2.1884    0.5330   -0.8656 C   0  0  0  0  0  0  0  0  0  0  0  0
    2.8667    0.1088   -2.1910 C   0  0  0  0  0  0  0  0  0  0  0  0
    2.5367    2.1034   -0.5778 C   0  0  0  0  0  0  0  0  0  0  0  0
    1.6100    2.9806    0.3958 C   0  0  0  0  0  0  0  0  0  0  0  0
   -0.2424   -0.5668    0.3401 C   0  0  0  0  0  0  0  0  0  0  0  0
   -0.7158    0.0473    1.6220 O   0  0  0  0  0  0  0  0  0  0  0  0
    0.8143   -1.3400    1.1308 C   0  0  0  0  0  0  0  0  0  0  0  0
    1.5491   -2.2829    0.3344 O   0  0  0  0  0  0  0  0  0  0  0  0
    1.4696   -3.6145    0.5106 C   0  0  0  0  0  0  0  0  0  0  0  0
    0.6031   -4.1355    1.6171 C   0  0  0  0  0  0  0  0  0  0  0  0
    2.0816   -4.3829   -0.2322 O   0  0  0  0  0  0  0  0  0  0  0  0
    1.7447   -0.3158    1.6522 O   0  0  0  0  0  0  0  0  0  0  0  0
    1.2781    1.0598    1.8502 C   0  0  0  0  0  0  0  0  0  0  0  0
   -0.3756   -2.9184   -1.3456 H   0  0  0  0  0  0  0  0  0  0  0  0
   -1.9035   -3.8099   -1.3929 H   0  0  0  0  0  0  0  0  0  0  0  0
   -1.4578   -2.7377   -2.7371 H   0  0  0  0  0  0  0  0  0  0  0  0
   -3.2071   -1.6762   -1.2531 H   0  0  0  0  0  0  0  0  0  0  0  0
   -3.2945   -0.2086    1.0148 H   0  0  0  0  0  0  0  0  0  0  0  0
   -5.0252    1.2646    0.4561 H   0  0  0  0  0  0  0  0  0  0  0  0
   -3.8462    2.5687    0.8132 H   0  0  0  0  0  0  0  0  0  0  0  0
   -4.6858    2.5190   -0.7539 H   0  0  0  0  0  0  0  0  0  0  0  0
   -2.2121    1.1802    2.3923 H   0  0  0  0  0  0  0  0  0  0  0  0
   -1.3517    2.3870   -0.7329 H   0  0  0  0  0  0  0  0  0  0  0  0
    0.0555    3.0666   -1.2970 H   0  0  0  0  0  0  0  0  0  0  0  0
    0.3799    1.3715   -2.5936 H   0  0  0  0  0  0  0  0  0  0  0  0
    2.7472   -0.0539   -0.1407 H   0  0  0  0  0  0  0  0  0  0  0  0
    3.9497    0.2737   -2.1341 H   0  0  0  0  0  0  0  0  0  0  0  0
    2.4968    0.6774   -3.0483 H   0  0  0  0  0  0  0  0  0  0  0  0
    2.7065   -0.9567   -2.3940 H   0  0  0  0  0  0  0  0  0  0  0  0
    3.5679    2.1484   -0.2009 H   0  0  0  0  0  0  0  0  0  0  0  0
    2.5633    2.6253   -1.5455 H   0  0  0  0  0  0  0  0  0  0  0  0
    1.3506    3.9367   -0.0770 H   0  0  0  0  0  0  0  0  0  0  0  0
    2.1661    3.3110    1.2811 H   0  0  0  0  0  0  0  0  0  0  0  0
    0.4059   -1.8060    2.0312 H   0  0  0  0  0  0  0  0  0  0  0  0
    0.6659   -5.2289    1.6341 H   0  0  0  0  0  0  0  0  0  0  0  0
    0.9512   -3.7758    2.5897 H   0  0  0  0  0  0  0  0  0  0  0  0
   -0.4406   -3.8605    1.4426 H   0  0  0  0  0  0  0  0  0  0  0  0
    0.7590    1.1006    2.8219 H   0  0  0  0  0  0  0  0  0  0  0  0
    2.2152    1.5610    2.1184 H   0  0  0  0  0  0  0  0  0  0  0  0
  2  1  1  0  0  0  0
  3  2  2  0  0  0  0
  4  3  1  0  0  0  0
  5  4  1  0  0  0  0
  6  5  1  0  0  0  0
  7  4  1  0  0  0  0
  8  7  1  0  0  0  0
  9  8  1  0  0  0  0
 10  9  1  0  0  0  0
 11 10  1  0  0  0  0
 12 11  2  0  0  0  0
 13 12  1  0  0  0  0
 14 13  1  0  0  0  0
 15 13  1  0  0  0  0
 16 15  1  0  0  0  0
 16  9  1  0  0  0  0
 17 12  1  0  0  0  0
 17  3  1  0  0  0  0
 18 17  1  0  0  0  0
 18  7  1  0  0  0  0
 19 17  1  0  0  0  0
 20 19  1  0  0  0  0
 21 20  1  0  0  0  0
 22 21  1  0  0  0  0
 23 21  2  0  0  0  0
 24 19  1  0  0  0  0
 25 24  1  0  0  0  0
 25  9  1  0  0  0  0
  1 26  1  0  0  0  0
  1 27  1  0  0  0  0
  1 28  1  0  0  0  0
  2 29  1  0  0  0  0
  4 30  1  0  0  0  0
  6 31  1  0  0  0  0
  6 32  1  0  0  0  0
  6 33  1  0  0  0  0
  7 34  1  0  0  0  0
 10 35  1  0  0  0  0
 10 36  1  0  0  0  0
 11 37  1  0  0  0  0
 13 38  1  0  0  0  0
 14 39  1  0  0  0  0
 14 40  1  0  0  0  0
 14 41  1  0  0  0  0
 15 42  1  0  0  0  0
 15 43  1  0  0  0  0
 16 44  1  0  0  0  0
 16 45  1  0  0  0  0
 19 46  1  0  0  0  0
 22 47  1  0  0  0  0
 22 48  1  0  0  0  0
 22 49  1  0  0  0  0
 25 50  1  0  0  0  0
 25 51  1  0  0  0  0
M  END
>  <energy>
396.02755372397479

$$$$
