CCSC1=NC2C(OC)OC3CC4(C3)C3CC2C2C1N4C23
                    3D

 43 48  0  0  0  0  0  0  0  0999 V2000
    1.5779   -3.1646   -1.6890 C   0  0  0  0  0  0  0  0  0  0  0  0
    2.7895   -2.2791   -1.4650 C   0  0  0  0  0  0  0  0  0  0  0  0
    3.0706   -1.9232    0.2822 S   0  0  0  0  0  0  0  0  0  0  0  0
    1.7547   -0.8144    0.6470 C   0  0  0  0  0  0  0  0  0  0  0  0
    0.7583   -1.2808    1.3002 N   0  0  0  0  0  0  0  0  0  0  0  0
   -0.3291   -0.3725    1.7328 C   0  0  0  0  0  0  0  0  0  0  0  0
   -1.5865   -0.6301    0.8356 C   0  0  0  0  0  0  0  0  0  0  0  0
   -2.2627   -1.7855    1.3743 O   0  0  0  0  0  0  0  0  0  0  0  0
   -3.4861   -2.0581    0.7090 C   0  0  0  0  0  0  0  0  0  0  0  0
   -1.2024   -0.9144   -0.5031 O   0  0  0  0  0  0  0  0  0  0  0  0
   -1.1769    0.0940   -1.5185 C   0  0  0  0  0  0  0  0  0  0  0  0
    0.1852    0.5554   -1.9575 C   0  0  0  0  0  0  0  0  0  0  0  0
    0.1376    1.9035   -1.1362 C   0  0  0  0  0  0  0  0  0  0  0  0
   -1.4048    1.5390   -1.2329 C   0  0  0  0  0  0  0  0  0  0  0  0
   -0.1385    2.6718    0.2309 C   0  0  0  0  0  0  0  0  0  0  0  0
   -0.7645    2.2322    1.5636 C   0  0  0  0  0  0  0  0  0  0  0  0
    0.0992    1.0899    2.0786 C   0  0  0  0  0  0  0  0  0  0  0  0
    1.4853    1.5215    1.6000 C   0  0  0  0  0  0  0  0  0  0  0  0
    2.0488    0.6799    0.4767 C   0  0  0  0  0  0  0  0  0  0  0  0
    1.4708    1.6040   -0.5328 N   0  0  0  0  0  0  0  0  0  0  0  0
    1.3224    2.5988    0.5215 C   0  0  0  0  0  0  0  0  0  0  0  0
    1.4808   -3.3941   -2.7557 H   0  0  0  0  0  0  0  0  0  0  0  0
    0.6503   -2.6813   -1.3724 H   0  0  0  0  0  0  0  0  0  0  0  0
    1.6731   -4.1157   -1.1542 H   0  0  0  0  0  0  0  0  0  0  0  0
    3.6782   -2.8030   -1.8334 H   0  0  0  0  0  0  0  0  0  0  0  0
    2.7206   -1.3505   -2.0363 H   0  0  0  0  0  0  0  0  0  0  0  0
   -0.6194   -0.7688    2.7180 H   0  0  0  0  0  0  0  0  0  0  0  0
   -2.3114    0.1784    0.8918 H   0  0  0  0  0  0  0  0  0  0  0  0
   -4.1768   -1.2164    0.8142 H   0  0  0  0  0  0  0  0  0  0  0  0
   -3.3204   -2.2800   -0.3488 H   0  0  0  0  0  0  0  0  0  0  0  0
   -3.9416   -2.9360    1.1755 H   0  0  0  0  0  0  0  0  0  0  0  0
   -1.7887   -0.2608   -2.3566 H   0  0  0  0  0  0  0  0  0  0  0  0
    0.9486   -0.2063   -1.7990 H   0  0  0  0  0  0  0  0  0  0  0  0
    0.2396    0.7548   -3.0415 H   0  0  0  0  0  0  0  0  0  0  0  0
   -1.8507    2.0632   -2.0992 H   0  0  0  0  0  0  0  0  0  0  0  0
   -2.1449    1.7461   -0.4589 H   0  0  0  0  0  0  0  0  0  0  0  0
   -0.4770    3.6997    0.0215 H   0  0  0  0  0  0  0  0  0  0  0  0
   -1.8343    2.0283    1.5350 H   0  0  0  0  0  0  0  0  0  0  0  0
   -0.6693    3.0757    2.2648 H   0  0  0  0  0  0  0  0  0  0  0  0
    0.0881    1.1540    3.1762 H   0  0  0  0  0  0  0  0  0  0  0  0
    2.1881    1.7611    2.4052 H   0  0  0  0  0  0  0  0  0  0  0  0
    3.1458    0.8128    0.4595 H   0  0  0  0  0  0  0  0  0  0  0  0
    1.9724    3.4716    0.4770 H   0  0  0  0  0  0  0  0  0  0  0  0
  2  1  1  0  0  0  0
  3  2  1  0  0  0  0
  4  3  1  0  0  0  0
  5  4  2  0  0  0  0
  6  5  1  0  0  0  0
  7  6  1  0  0  0  0
  8  7  1  0  0  0  0
  9  8  1  0  0  0  0
 10  7  1  0  0  0  0
 11 10  1  0  0  0  0
 12 11  1  0  0  0  0
 13 12  1  0  0  0  0
 14 13  1  0  0  0  0
 14 11  1  0  0  0  0
 15 13  1  0  0  0  0
 16 15  1  0  0  0  0
 17 16  1  0  0  0  0
 17  6  1  0  0  0  0
 18 17  1  0  0  0  0
 19 18  1  0  0  0  0
 19  4  1  0  0  0  0
 20 19  1  0  0  0  0
 20 13  1  0  0  0  0
 21 20  1  0  0  0  0
 21 18  1  0  0  0  0
 21 15  1  0  0  0  0
  1 22  1  0  0  0  0
  1 23  1  0  0  0  0
  1 24  1  0  0  0  0
  2 25  1  0  0  0  0
  2 26  1  0  0  0  0
  6 27  1  0  0  0  0
  7 28  1  0  0  0  0
  9 29  1  0  0  0  0
  9 30  1  0  0  0  0
  9 31  1  0  0  0  0
 11 32  1  0  0  0  0
 12 33  1  0  0  0  0
 12 34  1  0  0  0  0
 14 35  1  0  0  0  0
 14 36  1  0  0  0  0
 15 37  1  0  0  0  0
 16 38  1  0  0  0  0
 16 39  1  0  0  0  0
 17 40  1  0  0  0  0
 18 41  1  0  0  0  0
 19 42  1  0  0  0  0
 21 43  1  0  0  0  0
M  END
>  <energy>
248.87258365069721

$$$$
