N=C(NOCCSCC1=C2OC(O)C(=C1O)O[NH+]2[O-])C1CC(N=Cc2no[nH]c2=N)N=N1
                    3D

 51 54  0  0  0  0  0  0  0  0999 V2000
   -2.2769   -3.2794   -0.9308 N   0  0  0  0  0  0  0  0  0  0  0  0
   -1.7294   -3.4696    0.2314 C   0  0  0  0  0  0  0  0  0  0  0  0
   -2.3069   -3.0029    1.4002 N   0  0  0  0  0  0  0  0  0  0  0  0
   -2.2356   -1.5958    1.4361 O   0  0  0  0  0  0  0  0  0  0  0  0
   -3.5658   -1.0711    1.4746 C   0  0  0  0  0  0  0  0  0  0  0  0
   -3.6802    0.0724    0.4645 C   0  0  0  0  0  0  0  0  0  0  0  0
   -3.0680    1.7034    1.0434 S   0  0  0  0  0  0  0  0  0  0  0  0
   -1.2545    1.4761    0.9870 C   0  0  0  0  0  0  0  0  0  0  0  0
   -0.6547    1.9744   -0.2986 C   0  0  0  0  0  0  0  0  0  0  0  0
   -1.0712    1.5955   -1.5429 C   0  0  0  0  0  0  0  0  0  0  0  0
    0.0490    1.4298   -2.4268 O   0  0  0  0  0  0  0  0  0  0  0  0
    0.5784    2.7548   -2.6709 C   0  0  0  0  0  0  0  0  0  0  0  0
    1.9867    2.7654   -2.5343 O   0  0  0  0  0  0  0  0  0  0  0  0
   -0.0555    3.7610   -1.6783 C   0  0  0  0  0  0  0  0  0  0  0  0
   -0.0626    3.3404   -0.3869 C   0  0  0  0  0  0  0  0  0  0  0  0
   -0.4564    4.1797    0.6353 O   0  0  0  0  0  0  0  0  0  0  0  0
   -1.3965    3.9671   -2.1373 O   0  0  0  0  0  0  0  0  0  0  0  0
   -2.0555    2.6284   -2.0819 N   0  3  0  0  0  0  0  0  0  0  0  0
   -2.4084    2.2944   -3.3406 O   0  5  0  0  0  0  0  0  0  0  0  0
   -0.3806   -4.2000    0.2821 C   0  0  0  0  0  0  0  0  0  0  0  0
    0.7547   -3.2909   -0.1311 C   0  0  0  0  0  0  0  0  0  0  0  0
    1.0450   -2.6386    1.1986 C   0  0  0  0  0  0  0  0  0  0  0  0
    2.4340   -2.1926    1.2855 N   0  0  0  0  0  0  0  0  0  0  0  0
    2.5725   -0.9613    0.9307 C   0  0  0  0  0  0  0  0  0  0  0  0
    3.8821   -0.2625    0.9890 C   0  0  0  0  0  0  0  0  0  0  0  0
    4.8528   -0.6043    1.7778 N   0  0  0  0  0  0  0  0  0  0  0  0
    5.8999    0.3369    1.5551 O   0  0  0  0  0  0  0  0  0  0  0  0
    5.4588    1.3632    0.7101 N   0  0  0  0  0  0  0  0  0  0  0  0
    4.2712    0.9395    0.2129 C   0  0  0  0  0  0  0  0  0  0  0  0
    3.5722    1.3977   -0.7617 N   0  0  0  0  0  0  0  0  0  0  0  0
    0.7576   -3.7161    2.1674 N   0  0  0  0  0  0  0  0  0  0  0  0
   -0.0666   -4.5396    1.6862 N   0  0  0  0  0  0  0  0  0  0  0  0
   -3.1638   -2.7907   -0.7801 H   0  0  0  0  0  0  0  0  0  0  0  0
   -1.8216   -3.3857    2.2194 H   0  0  0  0  0  0  0  0  0  0  0  0
   -3.7826   -0.7431    2.4959 H   0  0  0  0  0  0  0  0  0  0  0  0
   -4.3001   -1.8462    1.2157 H   0  0  0  0  0  0  0  0  0  0  0  0
   -4.7407    0.2418    0.2548 H   0  0  0  0  0  0  0  0  0  0  0  0
   -3.1876   -0.1843   -0.4795 H   0  0  0  0  0  0  0  0  0  0  0  0
   -0.8414    2.0314    1.8361 H   0  0  0  0  0  0  0  0  0  0  0  0
   -0.9633    0.4352    1.1546 H   0  0  0  0  0  0  0  0  0  0  0  0
    0.3469    3.0341   -3.7028 H   0  0  0  0  0  0  0  0  0  0  0  0
    2.1670    2.1129   -1.8265 H   0  0  0  0  0  0  0  0  0  0  0  0
   -0.2591    5.0952    0.3539 H   0  0  0  0  0  0  0  0  0  0  0  0
   -2.8597    2.6831   -1.4163 H   0  0  0  0  0  0  0  0  0  0  0  0
   -0.4315   -5.1003   -0.3389 H   0  0  0  0  0  0  0  0  0  0  0  0
    0.5012   -2.5673   -0.9110 H   0  0  0  0  0  0  0  0  0  0  0  0
    1.6129   -3.8838   -0.4731 H   0  0  0  0  0  0  0  0  0  0  0  0
    0.3458   -1.8209    1.4072 H   0  0  0  0  0  0  0  0  0  0  0  0
    1.7471   -0.3260    0.5630 H   0  0  0  0  0  0  0  0  0  0  0  0
    6.1597    1.6558    0.0402 H   0  0  0  0  0  0  0  0  0  0  0  0
    4.0814    2.2032   -1.1584 H   0  0  0  0  0  0  0  0  0  0  0  0
  2  1  2  0  0  0  0
  3  2  1  0  0  0  0
  4  3  1  0  0  0  0
  5  4  1  0  0  0  0
  6  5  1  0  0  0  0
  7  6  1  0  0  0  0
  8  7  1  0  0  0  0
  9  8  1  0  0  0  0
 10  9  2  0  0  0  0
 11 10  1  0  0  0  0
 12 11  1  0  0  0  0
 13 12  1  0  0  0  0
 14 12  1  0  0  0  0
 15 14  2  0  0  0  0
 15  9  1  0  0  0  0
 16 15  1  0  0  0  0
 17 14  1  0  0  0  0
 18 17  1  0  0  0  0
 18 10  1  0  0  0  0
 19 18  1  0  0  0  0
 20  2  1  0  0  0  0
 21 20  1  0  0  0  0
 22 21  1  0  0  0  0
 23 22  1  0  0  0  0
 24 23  2  0  0  0  0
 25 24  1  0  0  0  0
 26 25  2  0  0  0  0
 27 26  1  0  0  0  0
 28 27  1  0  0  0  0
 29 28  1  0  0  0  0
 29 25  1  0  0  0  0
 30 29  2  0  0  0  0
 31 22  1  0  0  0  0
 32 31  2  0  0  0  0
 32 20  1  0  0  0  0
  1 33  1  0  0  0  0
  3 34  1  0  0  0  0
  5 35  1  0  0  0  0
  5 36  1  0  0  0  0
  6 37  1  0  0  0  0
  6 38  1  0  0  0  0
  8 39  1  0  0  0  0
  8 40  1  0  0  0  0
 12 41  1  0  0  0  0
 13 42  1  0  0  0  0
 16 43  1  0  0  0  0
 18 44  1  0  0  0  0
 20 45  1  0  0  0  0
 21 46  1  0  0  0  0
 21 47  1  0  0  0  0
 22 48  1  0  0  0  0
 24 49  1  0  0  0  0
 28 50  1  0  0  0  0
 30 51  1  0  0  0  0
M  CHG  2  18   1  19  -1
M  END
>  <energy>
203.42848860128319

$$$$
