COC1CCC23CC4C5(O)CC(N(C)C)C4(C5OC(=O)C4CCNCC4N)C2C13
                    3D

 64 69  0  0  0  0  0  0  0  0999 V2000
    0.8389    4.9683    1.1532 C   0  0  0  0  0  0  0  0  0  0  0  0
    0.6909    3.6300    0.6996 O   0  0  0  0  0  0  0  0  0  0  0  0
    1.6525    3.2744   -0.2842 C   0  0  0  0  0  0  0  0  0  0  0  0
    3.0629    3.0657    0.3035 C   0  0  0  0  0  0  0  0  0  0  0  0
    3.7021    1.9802   -0.5758 C   0  0  0  0  0  0  0  0  0  0  0  0
    2.5489    1.1462   -1.0422 C   0  0  0  0  0  0  0  0  0  0  0  0
    2.7213    0.1296   -2.1724 C   0  0  0  0  0  0  0  0  0  0  0  0
    1.4127   -0.6870   -2.1703 C   0  0  0  0  0  0  0  0  0  0  0  0
    0.8494   -2.1295   -1.9878 C   0  0  0  0  0  0  0  0  0  0  0  0
    0.3145   -2.8305   -3.1153 O   0  0  0  0  0  0  0  0  0  0  0  0
    1.8378   -2.9292   -1.1638 C   0  0  0  0  0  0  0  0  0  0  0  0
    2.0793   -1.9097   -0.0227 C   0  0  0  0  0  0  0  0  0  0  0  0
    1.6860   -2.2697    1.3587 N   0  0  0  0  0  0  0  0  0  0  0  0
    1.6343   -3.7067    1.6325 C   0  0  0  0  0  0  0  0  0  0  0  0
    2.5870   -1.6438    2.3366 C   0  0  0  0  0  0  0  0  0  0  0  0
    1.1713   -0.7397   -0.5756 C   0  0  0  0  0  0  0  0  0  0  0  0
   -0.1469   -1.4464   -0.9501 C   0  0  0  0  0  0  0  0  0  0  0  0
   -1.2087   -0.6182   -1.4802 O   0  0  0  0  0  0  0  0  0  0  0  0
   -2.4373   -1.1760   -1.3623 C   0  0  0  0  0  0  0  0  0  0  0  0
   -2.8937   -1.9151   -2.2238 O   0  0  0  0  0  0  0  0  0  0  0  0
   -3.1111   -0.8225   -0.0483 C   0  0  0  0  0  0  0  0  0  0  0  0
   -2.6125    0.5080    0.5520 C   0  0  0  0  0  0  0  0  0  0  0  0
   -3.5857    1.1131    1.5639 C   0  0  0  0  0  0  0  0  0  0  0  0
   -4.3827    0.0880    2.2274 N   0  0  0  0  0  0  0  0  0  0  0  0
   -5.2558   -0.6111    1.2692 C   0  0  0  0  0  0  0  0  0  0  0  0
   -4.6463   -0.8552   -0.1443 C   0  0  0  0  0  0  0  0  0  0  0  0
   -5.2075    0.0988   -1.1138 N   0  0  0  0  0  0  0  0  0  0  0  0
    1.4657    0.6473   -0.0917 C   0  0  0  0  0  0  0  0  0  0  0  0
    1.2869    1.9330   -0.8663 C   0  0  0  0  0  0  0  0  0  0  0  0
    1.7670    5.0835    1.7209 H   0  0  0  0  0  0  0  0  0  0  0  0
   -0.0004    5.1990    1.8150 H   0  0  0  0  0  0  0  0  0  0  0  0
    0.8194    5.6699    0.3131 H   0  0  0  0  0  0  0  0  0  0  0  0
    1.6738    4.0167   -1.0930 H   0  0  0  0  0  0  0  0  0  0  0  0
    2.9970    2.7185    1.3429 H   0  0  0  0  0  0  0  0  0  0  0  0
    3.6495    3.9905    0.3109 H   0  0  0  0  0  0  0  0  0  0  0  0
    4.4350    1.3939   -0.0137 H   0  0  0  0  0  0  0  0  0  0  0  0
    4.2047    2.4399   -1.4337 H   0  0  0  0  0  0  0  0  0  0  0  0
    2.8642    0.6403   -3.1300 H   0  0  0  0  0  0  0  0  0  0  0  0
    3.5933   -0.5062   -1.9903 H   0  0  0  0  0  0  0  0  0  0  0  0
    0.7129   -0.0844   -2.7740 H   0  0  0  0  0  0  0  0  0  0  0  0
   -0.5422   -2.3993   -3.3060 H   0  0  0  0  0  0  0  0  0  0  0  0
    2.7634   -3.1280   -1.7160 H   0  0  0  0  0  0  0  0  0  0  0  0
    1.4204   -3.8901   -0.8625 H   0  0  0  0  0  0  0  0  0  0  0  0
    3.1419   -1.6333   -0.0463 H   0  0  0  0  0  0  0  0  0  0  0  0
    2.5678   -4.2151    1.3667 H   0  0  0  0  0  0  0  0  0  0  0  0
    1.4371   -3.8939    2.6948 H   0  0  0  0  0  0  0  0  0  0  0  0
    0.7990   -4.1758    1.1033 H   0  0  0  0  0  0  0  0  0  0  0  0
    2.2066   -1.7910    3.3533 H   0  0  0  0  0  0  0  0  0  0  0  0
    3.5995   -2.0602    2.2838 H   0  0  0  0  0  0  0  0  0  0  0  0
    2.6647   -0.5640    2.1955 H   0  0  0  0  0  0  0  0  0  0  0  0
   -0.5270   -2.1276   -0.1774 H   0  0  0  0  0  0  0  0  0  0  0  0
   -2.8104   -1.6265    0.6410 H   0  0  0  0  0  0  0  0  0  0  0  0
   -2.4167    1.2494   -0.2333 H   0  0  0  0  0  0  0  0  0  0  0  0
   -1.6495    0.3235    1.0469 H   0  0  0  0  0  0  0  0  0  0  0  0
   -4.2456    1.8431    1.0801 H   0  0  0  0  0  0  0  0  0  0  0  0
   -3.0205    1.6766    2.3154 H   0  0  0  0  0  0  0  0  0  0  0  0
   -3.7616   -0.5847    2.6765 H   0  0  0  0  0  0  0  0  0  0  0  0
   -6.2034   -0.0638    1.1911 H   0  0  0  0  0  0  0  0  0  0  0  0
   -5.5178   -1.5806    1.7109 H   0  0  0  0  0  0  0  0  0  0  0  0
   -4.9643   -1.8522   -0.4743 H   0  0  0  0  0  0  0  0  0  0  0  0
   -4.8705   -0.1198   -2.0526 H   0  0  0  0  0  0  0  0  0  0  0  0
   -4.9196    1.0514   -0.9028 H   0  0  0  0  0  0  0  0  0  0  0  0
    1.5380    0.7173    0.9812 H   0  0  0  0  0  0  0  0  0  0  0  0
    0.5401    1.9905   -1.6435 H   0  0  0  0  0  0  0  0  0  0  0  0
  2  1  1  0  0  0  0
  3  2  1  0  0  0  0
  4  3  1  0  0  0  0
  5  4  1  0  0  0  0
  6  5  1  0  0  0  0
  7  6  1  0  0  0  0
  8  7  1  0  0  0  0
  9  8  1  0  0  0  0
 10  9  1  0  0  0  0
 11  9  1  0  0  0  0
 12 11  1  0  0  0  0
 13 12  1  0  0  0  0
 14 13  1  0  0  0  0
 15 13  1  0  0  0  0
 16 12  1  0  0  0  0
 16  8  1  0  0  0  0
 17 16  1  0  0  0  0
 17  9  1  0  0  0  0
 18 17  1  0  0  0  0
 19 18  1  0  0  0  0
 20 19  2  0  0  0  0
 21 19  1  0  0  0  0
 22 21  1  0  0  0  0
 23 22  1  0  0  0  0
 24 23  1  0  0  0  0
 25 24  1  0  0  0  0
 26 25  1  0  0  0  0
 26 21  1  0  0  0  0
 27 26  1  0  0  0  0
 28 16  1  0  0  0  0
 28  6  1  0  0  0  0
 29 28  1  0  0  0  0
 29  3  1  0  0  0  0
 29  6  1  0  0  0  0
  1 30  1  0  0  0  0
  1 31  1  0  0  0  0
  1 32  1  0  0  0  0
  3 33  1  0  0  0  0
  4 34  1  0  0  0  0
  4 35  1  0  0  0  0
  5 36  1  0  0  0  0
  5 37  1  0  0  0  0
  7 38  1  0  0  0  0
  7 39  1  0  0  0  0
  8 40  1  0  0  0  0
 10 41  1  0  0  0  0
 11 42  1  0  0  0  0
 11 43  1  0  0  0  0
 12 44  1  0  0  0  0
 14 45  1  0  0  0  0
 14 46  1  0  0  0  0
 14 47  1  0  0  0  0
 15 48  1  0  0  0  0
 15 49  1  0  0  0  0
 15 50  1  0  0  0  0
 17 51  1  0  0  0  0
 21 52  1  0  0  0  0
 22 53  1  0  0  0  0
 22 54  1  0  0  0  0
 23 55  1  0  0  0  0
 23 56  1  0  0  0  0
 24 57  1  0  0  0  0
 25 58  1  0  0  0  0
 25 59  1  0  0  0  0
 26 60  1  0  0  0  0
 27 61  1  0  0  0  0
 27 62  1  0  0  0  0
 28 63  1  0  0  0  0
 29 64  1  0  0  0  0
M  END
>  <energy>
158.58585430156492

$$$$
