COC1C2C(CC3(OC)CC14CC3C4)C(C)(COS(C)(=O)=O)OC2(C)C
                    3D

 58 61  0  0  0  0  0  0  0  0999 V2000
    4.2678    0.0891   -1.5252 C   0  0  0  0  0  0  0  0  0  0  0  0
    3.5211    0.0128   -0.3181 O   0  0  0  0  0  0  0  0  0  0  0  0
    2.1068    0.0928   -0.5285 C   0  0  0  0  0  0  0  0  0  0  0  0
    1.4434    0.4470    0.8515 C   0  0  0  0  0  0  0  0  0  0  0  0
   -0.0152    0.0056    1.2462 C   0  0  0  0  0  0  0  0  0  0  0  0
   -0.8149   -1.2787    0.7379 C   0  0  0  0  0  0  0  0  0  0  0  0
   -0.0897   -2.4185   -0.0606 C   0  0  0  0  0  0  0  0  0  0  0  0
   -0.4776   -3.7316    0.3190 O   0  0  0  0  0  0  0  0  0  0  0  0
   -1.8263   -4.0739    0.0327 C   0  0  0  0  0  0  0  0  0  0  0  0
    1.3894   -2.2540    0.1570 C   0  0  0  0  0  0  0  0  0  0  0  0
    1.5814   -1.2403   -0.9960 C   0  0  0  0  0  0  0  0  0  0  0  0
    0.2284   -0.7590   -1.7725 C   0  0  0  0  0  0  0  0  0  0  0  0
   -0.0714   -2.2431   -1.6145 C   0  0  0  0  0  0  0  0  0  0  0  0
    1.4522   -2.3199   -2.1608 C   0  0  0  0  0  0  0  0  0  0  0  0
   -0.7940    1.3402    1.3649 C   0  0  0  0  0  0  0  0  0  0  0  0
   -1.8347    1.2752    2.4916 C   0  0  0  0  0  0  0  0  0  0  0  0
   -1.4735    1.8970    0.0957 C   0  0  0  0  0  0  0  0  0  0  0  0
   -2.5890    1.1118   -0.2882 O   0  0  0  0  0  0  0  0  0  0  0  0
   -3.8460    1.8718   -0.9852 S   0  0  0  0  0  0  0  0  0  0  0  0
   -4.8284    0.4253   -1.2887 C   0  0  0  0  0  0  0  0  0  0  0  0
   -4.5079    2.6784    0.0154 O   0  0  0  0  0  0  0  0  0  0  0  0
   -3.4064    2.4117   -2.2530 O   0  0  0  0  0  0  0  0  0  0  0  0
    0.1978    2.3108    1.7636 O   0  0  0  0  0  0  0  0  0  0  0  0
    1.5130    1.9357    1.2965 C   0  0  0  0  0  0  0  0  0  0  0  0
    2.4440    2.1046    2.5098 C   0  0  0  0  0  0  0  0  0  0  0  0
    1.9296    2.9518    0.2315 C   0  0  0  0  0  0  0  0  0  0  0  0
    4.0751    1.0378   -2.0354 H   0  0  0  0  0  0  0  0  0  0  0  0
    4.0323   -0.7511   -2.1839 H   0  0  0  0  0  0  0  0  0  0  0  0
    5.3307    0.0433   -1.2729 H   0  0  0  0  0  0  0  0  0  0  0  0
    1.9075    0.8789   -1.2643 H   0  0  0  0  0  0  0  0  0  0  0  0
    2.0930   -0.0722    1.5740 H   0  0  0  0  0  0  0  0  0  0  0  0
    0.1542   -0.2817    2.3014 H   0  0  0  0  0  0  0  0  0  0  0  0
   -1.7090   -0.9899    0.1822 H   0  0  0  0  0  0  0  0  0  0  0  0
   -1.2300   -1.7388    1.6465 H   0  0  0  0  0  0  0  0  0  0  0  0
   -2.5294   -3.3308    0.4188 H   0  0  0  0  0  0  0  0  0  0  0  0
   -2.0393   -5.0317    0.5156 H   0  0  0  0  0  0  0  0  0  0  0  0
   -1.9692   -4.2054   -1.0430 H   0  0  0  0  0  0  0  0  0  0  0  0
    1.6562   -1.9605    1.1724 H   0  0  0  0  0  0  0  0  0  0  0  0
    1.9512   -3.1870    0.0122 H   0  0  0  0  0  0  0  0  0  0  0  0
   -0.4679   -0.0692   -1.3130 H   0  0  0  0  0  0  0  0  0  0  0  0
    0.3553   -0.3711   -2.7953 H   0  0  0  0  0  0  0  0  0  0  0  0
   -0.8774   -2.6399   -2.2316 H   0  0  0  0  0  0  0  0  0  0  0  0
    1.9544   -3.2856   -2.0491 H   0  0  0  0  0  0  0  0  0  0  0  0
    1.6390   -1.9846   -3.1898 H   0  0  0  0  0  0  0  0  0  0  0  0
   -2.5811    0.4947    2.3158 H   0  0  0  0  0  0  0  0  0  0  0  0
   -1.3556    1.0928    3.4597 H   0  0  0  0  0  0  0  0  0  0  0  0
   -2.3569    2.2340    2.5926 H   0  0  0  0  0  0  0  0  0  0  0  0
   -1.7825    2.9340    0.2878 H   0  0  0  0  0  0  0  0  0  0  0  0
   -0.7739    1.9570   -0.7425 H   0  0  0  0  0  0  0  0  0  0  0  0
   -4.2616   -0.2610   -1.9206 H   0  0  0  0  0  0  0  0  0  0  0  0
   -5.0765   -0.0399   -0.3327 H   0  0  0  0  0  0  0  0  0  0  0  0
   -5.7415    0.7355   -1.8001 H   0  0  0  0  0  0  0  0  0  0  0  0
    2.1272    1.4641    3.3416 H   0  0  0  0  0  0  0  0  0  0  0  0
    3.4809    1.8615    2.2558 H   0  0  0  0  0  0  0  0  0  0  0  0
    2.4110    3.1330    2.8886 H   0  0  0  0  0  0  0  0  0  0  0  0
    1.8585    3.9720    0.6271 H   0  0  0  0  0  0  0  0  0  0  0  0
    1.2659    2.9279   -0.6368 H   0  0  0  0  0  0  0  0  0  0  0  0
    2.9592    2.7916   -0.1031 H   0  0  0  0  0  0  0  0  0  0  0  0
  2  1  1  0  0  0  0
  3  2  1  0  0  0  0
  4  3  1  0  0  0  0
  5  4  1  0  0  0  0
  6  5  1  0  0  0  0
  7  6  1  0  0  0  0
  8  7  1  0  0  0  0
  9  8  1  0  0  0  0
 10  7  1  0  0  0  0
 11 10  1  0  0  0  0
 11  3  1  0  0  0  0
 12 11  1  0  0  0  0
 13 12  1  0  0  0  0
 13  7  1  0  0  0  0
 14 13  1  0  0  0  0
 14 11  1  0  0  0  0
 15  5  1  0  0  0  0
 16 15  1  0  0  0  0
 17 15  1  0  0  0  0
 18 17  1  0  0  0  0
 19 18  1  0  0  0  0
 20 19  1  0  0  0  0
 21 19  2  0  0  0  0
 22 19  2  0  0  0  0
 23 15  1  0  0  0  0
 24 23  1  0  0  0  0
 24  4  1  0  0  0  0
 25 24  1  0  0  0  0
 26 24  1  0  0  0  0
  1 27  1  0  0  0  0
  1 28  1  0  0  0  0
  1 29  1  0  0  0  0
  3 30  1  0  0  0  0
  4 31  1  0  0  0  0
  5 32  1  0  0  0  0
  6 33  1  0  0  0  0
  6 34  1  0  0  0  0
  9 35  1  0  0  0  0
  9 36  1  0  0  0  0
  9 37  1  0  0  0  0
 10 38  1  0  0  0  0
 10 39  1  0  0  0  0
 12 40  1  0  0  0  0
 12 41  1  0  0  0  0
 13 42  1  0  0  0  0
 14 43  1  0  0  0  0
 14 44  1  0  0  0  0
 16 45  1  0  0  0  0
 16 46  1  0  0  0  0
 16 47  1  0  0  0  0
 17 48  1  0  0  0  0
 17 49  1  0  0  0  0
 20 50  1  0  0  0  0
 20 51  1  0  0  0  0
 20 52  1  0  0  0  0
 25 53  1  0  0  0  0
 25 54  1  0  0  0  0
 25 55  1  0  0  0  0
 26 56  1  0  0  0  0
 26 57  1  0  0  0  0
 26 58  1  0  0  0  0
M  END
>  <energy>
153.63059682598009

$$$$
