CCCCCN1CC23C(O)C(OC)C4C(CCCC4(O)C2O)C13
                    3D

 54 57  0  0  0  0  0  0  0  0999 V2000
    3.4749    3.2588    0.7268 C   0  0  0  0  0  0  0  0  0  0  0  0
    2.4705    2.3850   -0.0107 C   0  0  0  0  0  0  0  0  0  0  0  0
    3.1249    1.1920   -0.7125 C   0  0  0  0  0  0  0  0  0  0  0  0
    3.5737    0.0852    0.2469 C   0  0  0  0  0  0  0  0  0  0  0  0
    2.6628   -1.1505    0.2701 C   0  0  0  0  0  0  0  0  0  0  0  0
    1.3275   -0.8472    0.8015 N   0  0  0  0  0  0  0  0  0  0  0  0
    0.7562   -2.1183    1.4412 C   0  0  0  0  0  0  0  0  0  0  0  0
   -0.6310   -1.5966    0.9668 C   0  0  0  0  0  0  0  0  0  0  0  0
   -1.3199   -0.6195    1.9520 C   0  0  0  0  0  0  0  0  0  0  0  0
   -0.4419   -0.1312    2.9711 O   0  0  0  0  0  0  0  0  0  0  0  0
   -1.9396    0.5388    1.1496 C   0  0  0  0  0  0  0  0  0  0  0  0
   -1.1702    1.7353    1.3748 O   0  0  0  0  0  0  0  0  0  0  0  0
   -1.9468    2.9198    1.2579 C   0  0  0  0  0  0  0  0  0  0  0  0
   -1.9230    0.1748   -0.3505 C   0  0  0  0  0  0  0  0  0  0  0  0
   -0.4605    0.1413   -0.8781 C   0  0  0  0  0  0  0  0  0  0  0  0
   -0.5097   -0.0698   -2.4049 C   0  0  0  0  0  0  0  0  0  0  0  0
   -1.2999   -1.3150   -2.8333 C   0  0  0  0  0  0  0  0  0  0  0  0
   -2.6311   -1.4908   -2.1001 C   0  0  0  0  0  0  0  0  0  0  0  0
   -2.5670   -1.2294   -0.5806 C   0  0  0  0  0  0  0  0  0  0  0  0
   -3.9033   -1.1880   -0.0707 O   0  0  0  0  0  0  0  0  0  0  0  0
   -1.7147   -2.3468    0.1766 C   0  0  0  0  0  0  0  0  0  0  0  0
   -2.5069   -3.1482    1.0507 O   0  0  0  0  0  0  0  0  0  0  0  0
    0.2537   -1.0377   -0.2125 C   0  0  0  0  0  0  0  0  0  0  0  0
    3.9627    2.7173    1.5421 H   0  0  0  0  0  0  0  0  0  0  0  0
    4.2499    3.6218    0.0447 H   0  0  0  0  0  0  0  0  0  0  0  0
    2.9701    4.1292    1.1571 H   0  0  0  0  0  0  0  0  0  0  0  0
    1.9679    3.0009   -0.7661 H   0  0  0  0  0  0  0  0  0  0  0  0
    1.7010    2.0461    0.6902 H   0  0  0  0  0  0  0  0  0  0  0  0
    2.4394    0.7864   -1.4649 H   0  0  0  0  0  0  0  0  0  0  0  0
    3.9985    1.5538   -1.2697 H   0  0  0  0  0  0  0  0  0  0  0  0
    4.5684   -0.2543   -0.0702 H   0  0  0  0  0  0  0  0  0  0  0  0
    3.6979    0.4651    1.2672 H   0  0  0  0  0  0  0  0  0  0  0  0
    2.6377   -1.6036   -0.7288 H   0  0  0  0  0  0  0  0  0  0  0  0
    3.1587   -1.8826    0.9222 H   0  0  0  0  0  0  0  0  0  0  0  0
    1.0624   -3.0655    0.9762 H   0  0  0  0  0  0  0  0  0  0  0  0
    0.9200   -2.1949    2.5193 H   0  0  0  0  0  0  0  0  0  0  0  0
   -2.1133   -1.1518    2.4886 H   0  0  0  0  0  0  0  0  0  0  0  0
    0.0502    0.5977    2.5382 H   0  0  0  0  0  0  0  0  0  0  0  0
   -2.9650    0.6968    1.5072 H   0  0  0  0  0  0  0  0  0  0  0  0
   -1.2885    3.7773    1.4217 H   0  0  0  0  0  0  0  0  0  0  0  0
   -2.7296    2.9355    2.0221 H   0  0  0  0  0  0  0  0  0  0  0  0
   -2.3887    3.0029    0.2609 H   0  0  0  0  0  0  0  0  0  0  0  0
   -2.4883    0.9443   -0.8921 H   0  0  0  0  0  0  0  0  0  0  0  0
    0.0494    1.0861   -0.6782 H   0  0  0  0  0  0  0  0  0  0  0  0
    0.5084   -0.1398   -2.8069 H   0  0  0  0  0  0  0  0  0  0  0  0
   -0.9687    0.8139   -2.8673 H   0  0  0  0  0  0  0  0  0  0  0  0
   -1.4855   -1.2677   -3.9130 H   0  0  0  0  0  0  0  0  0  0  0  0
   -0.6872   -2.2109   -2.6842 H   0  0  0  0  0  0  0  0  0  0  0  0
   -3.3644   -0.8079   -2.5500 H   0  0  0  0  0  0  0  0  0  0  0  0
   -3.0289   -2.4960   -2.2879 H   0  0  0  0  0  0  0  0  0  0  0  0
   -4.4564   -0.6522   -0.6629 H   0  0  0  0  0  0  0  0  0  0  0  0
   -1.2686   -3.0432   -0.5424 H   0  0  0  0  0  0  0  0  0  0  0  0
   -1.9169   -3.7410    1.5472 H   0  0  0  0  0  0  0  0  0  0  0  0
    0.5290   -1.8055   -0.9529 H   0  0  0  0  0  0  0  0  0  0  0  0
  2  1  1  0  0  0  0
  3  2  1  0  0  0  0
  4  3  1  0  0  0  0
  5  4  1  0  0  0  0
  6  5  1  0  0  0  0
  7  6  1  0  0  0  0
  8  7  1  0  0  0  0
  9  8  1  0  0  0  0
 10  9  1  0  0  0  0
 11  9  1  0  0  0  0
 12 11  1  0  0  0  0
 13 12  1  0  0  0  0
 14 11  1  0  0  0  0
 15 14  1  0  0  0  0
 16 15  1  0  0  0  0
 17 16  1  0  0  0  0
 18 17  1  0  0  0  0
 19 18  1  0  0  0  0
 19 14  1  0  0  0  0
 20 19  1  0  0  0  0
 21 19  1  0  0  0  0
 21  8  1  0  0  0  0
 22 21  1  0  0  0  0
 23 15  1  0  0  0  0
 23  6  1  0  0  0  0
 23  8  1  0  0  0  0
  1 24  1  0  0  0  0
  1 25  1  0  0  0  0
  1 26  1  0  0  0  0
  2 27  1  0  0  0  0
  2 28  1  0  0  0  0
  3 29  1  0  0  0  0
  3 30  1  0  0  0  0
  4 31  1  0  0  0  0
  4 32  1  0  0  0  0
  5 33  1  0  0  0  0
  5 34  1  0  0  0  0
  7 35  1  0  0  0  0
  7 36  1  0  0  0  0
  9 37  1  0  0  0  0
 10 38  1  0  0  0  0
 11 39  1  0  0  0  0
 13 40  1  0  0  0  0
 13 41  1  0  0  0  0
 13 42  1  0  0  0  0
 14 43  1  0  0  0  0
 15 44  1  0  0  0  0
 16 45  1  0  0  0  0
 16 46  1  0  0  0  0
 17 47  1  0  0  0  0
 17 48  1  0  0  0  0
 18 49  1  0  0  0  0
 18 50  1  0  0  0  0
 20 51  1  0  0  0  0
 21 52  1  0  0  0  0
 22 53  1  0  0  0  0
 23 54  1  0  0  0  0
M  END
>  <energy>
116.85259438305502

$$$$
