CC12OC3(O)C(O)C45COC(=O)C4(C)C3(O)C5(ON)C1(O)C(O)C2(O)CNC(=O)C(C=O)NO
                    3D

 59 63  0  0  0  0  0  0  0  0999 V2000
    1.0437   -0.3955   -2.1303 C   0  0  0  0  0  0  0  0  0  0  0  0
    0.1453   -0.7023   -0.9301 C   0  0  0  0  0  0  0  0  0  0  0  0
   -1.0993   -1.2214   -1.4665 O   0  0  0  0  0  0  0  0  0  0  0  0
   -2.3089   -0.5299   -1.2210 C   0  0  0  0  0  0  0  0  0  0  0  0
   -3.3474   -1.2917   -1.8011 O   0  0  0  0  0  0  0  0  0  0  0  0
   -2.3653    0.9741   -1.6675 C   0  0  0  0  0  0  0  0  0  0  0  0
   -1.2424    1.4952   -2.3449 O   0  0  0  0  0  0  0  0  0  0  0  0
   -2.4042    1.5633   -0.2763 C   0  0  0  0  0  0  0  0  0  0  0  0
   -2.7051    3.0052   -0.0000 C   0  0  0  0  0  0  0  0  0  0  0  0
   -3.3782    3.0626    1.2782 O   0  0  0  0  0  0  0  0  0  0  0  0
   -3.8822    1.8251    1.6220 C   0  0  0  0  0  0  0  0  0  0  0  0
   -4.4455    1.6157    2.6841 O   0  0  0  0  0  0  0  0  0  0  0  0
   -3.6207    0.8377    0.4221 C   0  0  0  0  0  0  0  0  0  0  0  0
   -4.9994    0.5905   -0.2087 C   0  0  0  0  0  0  0  0  0  0  0  0
   -2.5592   -0.3405    0.3087 C   0  0  0  0  0  0  0  0  0  0  0  0
   -2.7404   -1.5703    1.0267 O   0  0  0  0  0  0  0  0  0  0  0  0
   -1.4732    0.6817    0.7297 C   0  0  0  0  0  0  0  0  0  0  0  0
   -1.4236    1.1667    2.1116 O   0  0  0  0  0  0  0  0  0  0  0  0
   -1.8625    0.1301    3.0385 N   0  0  0  0  0  0  0  0  0  0  0  0
   -0.0053    0.4360    0.1422 C   0  0  0  0  0  0  0  0  0  0  0  0
    0.6895    1.6772   -0.1906 O   0  0  0  0  0  0  0  0  0  0  0  0
    0.7673   -0.4657    1.1740 C   0  0  0  0  0  0  0  0  0  0  0  0
    2.0038    0.0967    1.6716 O   0  0  0  0  0  0  0  0  0  0  0  0
    0.8322   -1.6650    0.1753 C   0  0  0  0  0  0  0  0  0  0  0  0
   -0.0511   -2.7795    0.5471 O   0  0  0  0  0  0  0  0  0  0  0  0
    2.2602   -2.2954    0.1848 C   0  0  0  0  0  0  0  0  0  0  0  0
    3.1015   -1.8886   -0.9206 N   0  0  0  0  0  0  0  0  0  0  0  0
    4.3201   -1.2759   -0.9508 C   0  0  0  0  0  0  0  0  0  0  0  0
    4.8852   -1.2231   -2.0502 O   0  0  0  0  0  0  0  0  0  0  0  0
    4.9590   -0.6856    0.3097 C   0  0  0  0  0  0  0  0  0  0  0  0
    6.3236   -1.3213    0.5137 C   0  0  0  0  0  0  0  0  0  0  0  0
    6.8471   -1.4684    1.6170 O   0  0  0  0  0  0  0  0  0  0  0  0
    5.1894    0.7795    0.1402 N   0  0  0  0  0  0  0  0  0  0  0  0
    3.8809    1.4139    0.0888 O   0  0  0  0  0  0  0  0  0  0  0  0
    0.5852    0.2644   -2.8651 H   0  0  0  0  0  0  0  0  0  0  0  0
    1.2719   -1.3142   -2.6815 H   0  0  0  0  0  0  0  0  0  0  0  0
    1.9726    0.0961   -1.8276 H   0  0  0  0  0  0  0  0  0  0  0  0
   -3.4528   -2.0618   -1.2098 H   0  0  0  0  0  0  0  0  0  0  0  0
   -3.2624    1.2193   -2.2490 H   0  0  0  0  0  0  0  0  0  0  0  0
   -1.2738    1.1098   -3.2457 H   0  0  0  0  0  0  0  0  0  0  0  0
   -3.3797    3.4439   -0.7428 H   0  0  0  0  0  0  0  0  0  0  0  0
   -1.7992    3.6133    0.0558 H   0  0  0  0  0  0  0  0  0  0  0  0
   -4.9792    0.2588   -1.2468 H   0  0  0  0  0  0  0  0  0  0  0  0
   -5.5427   -0.1607    0.3741 H   0  0  0  0  0  0  0  0  0  0  0  0
   -5.6016    1.5073   -0.2026 H   0  0  0  0  0  0  0  0  0  0  0  0
   -2.6341   -1.3044    1.9719 H   0  0  0  0  0  0  0  0  0  0  0  0
   -1.0682    0.1087    3.6902 H   0  0  0  0  0  0  0  0  0  0  0  0
   -2.5854    0.6377    3.5762 H   0  0  0  0  0  0  0  0  0  0  0  0
    0.2621    1.9947   -1.0157 H   0  0  0  0  0  0  0  0  0  0  0  0
    0.2005   -0.7873    2.0495 H   0  0  0  0  0  0  0  0  0  0  0  0
    2.2690    0.7675    1.0079 H   0  0  0  0  0  0  0  0  0  0  0  0
   -0.9688   -2.4949    0.3683 H   0  0  0  0  0  0  0  0  0  0  0  0
    2.7598   -2.1549    1.1456 H   0  0  0  0  0  0  0  0  0  0  0  0
    2.1733   -3.3827    0.0601 H   0  0  0  0  0  0  0  0  0  0  0  0
    2.9033   -2.3218   -1.8184 H   0  0  0  0  0  0  0  0  0  0  0  0
    4.3719   -0.8687    1.2093 H   0  0  0  0  0  0  0  0  0  0  0  0
    6.8829   -1.5759   -0.4036 H   0  0  0  0  0  0  0  0  0  0  0  0
    5.5694    1.1310    1.0268 H   0  0  0  0  0  0  0  0  0  0  0  0
    3.9913    2.0436   -0.6545 H   0  0  0  0  0  0  0  0  0  0  0  0
  2  1  1  0  0  0  0
  3  2  1  0  0  0  0
  4  3  1  0  0  0  0
  5  4  1  0  0  0  0
  6  4  1  0  0  0  0
  7  6  1  0  0  0  0
  8  6  1  0  0  0  0
  9  8  1  0  0  0  0
 10  9  1  0  0  0  0
 11 10  1  0  0  0  0
 12 11  2  0  0  0  0
 13 11  1  0  0  0  0
 13  8  1  0  0  0  0
 14 13  1  0  0  0  0
 15 13  1  0  0  0  0
 15  4  1  0  0  0  0
 16 15  1  0  0  0  0
 17 15  1  0  0  0  0
 17  8  1  0  0  0  0
 18 17  1  0  0  0  0
 19 18  1  0  0  0  0
 20 17  1  0  0  0  0
 20  2  1  0  0  0  0
 21 20  1  0  0  0  0
 22 20  1  0  0  0  0
 23 22  1  0  0  0  0
 24 22  1  0  0  0  0
 24  2  1  0  0  0  0
 25 24  1  0  0  0  0
 26 24  1  0  0  0  0
 27 26  1  0  0  0  0
 28 27  1  0  0  0  0
 29 28  2  0  0  0  0
 30 28  1  0  0  0  0
 31 30  1  0  0  0  0
 32 31  2  0  0  0  0
 33 30  1  0  0  0  0
 34 33  1  0  0  0  0
  1 35  1  0  0  0  0
  1 36  1  0  0  0  0
  1 37  1  0  0  0  0
  5 38  1  0  0  0  0
  6 39  1  0  0  0  0
  7 40  1  0  0  0  0
  9 41  1  0  0  0  0
  9 42  1  0  0  0  0
 14 43  1  0  0  0  0
 14 44  1  0  0  0  0
 14 45  1  0  0  0  0
 16 46  1  0  0  0  0
 19 47  1  0  0  0  0
 19 48  1  0  0  0  0
 21 49  1  0  0  0  0
 22 50  1  0  0  0  0
 23 51  1  0  0  0  0
 25 52  1  0  0  0  0
 26 53  1  0  0  0  0
 26 54  1  0  0  0  0
 27 55  1  0  0  0  0
 30 56  1  0  0  0  0
 31 57  1  0  0  0  0
 33 58  1  0  0  0  0
 34 59  1  0  0  0  0
M  END
>  <energy>
259.38825426686168

$$$$
