CC(=O)NC12CCN3C4C5NCC(C(=O)N6CCCCC6)(C1)C3C4C52
                    3D

 53 58  0  0  0  0  0  0  0  0999 V2000
    3.5824   -3.3839   -0.0049 C   0  0  0  0  0  0  0  0  0  0  0  0
    2.6173   -2.2439    0.1695 C   0  0  0  0  0  0  0  0  0  0  0  0
    1.5681   -2.3697    0.7915 O   0  0  0  0  0  0  0  0  0  0  0  0
    3.0415   -1.0717   -0.4109 N   0  0  0  0  0  0  0  0  0  0  0  0
    2.2737    0.1529   -0.3602 C   0  0  0  0  0  0  0  0  0  0  0  0
    2.8983    1.2376   -1.1229 C   0  0  0  0  0  0  0  0  0  0  0  0
    1.8120    2.2046   -0.7294 C   0  0  0  0  0  0  0  0  0  0  0  0
    0.6573    1.7744    0.6337 N   0  0  0  0  0  0  0  0  0  0  0  0
    0.9042    1.9040    2.0645 C   0  0  0  0  0  0  0  0  0  0  0  0
    1.9692    2.7330    1.5646 C   0  0  0  0  0  0  0  0  0  0  0  0
    0.7737    3.8556    0.6970 N   0  0  0  0  0  0  0  0  0  0  0  0
   -0.4974    3.0450   -0.3681 C   0  0  0  0  0  0  0  0  0  0  0  0
   -0.4882    1.1213   -0.5927 C   0  0  0  0  0  0  0  0  0  0  0  0
   -1.8118    0.7195   -1.1988 C   0  0  0  0  0  0  0  0  0  0  0  0
   -2.2674    1.2589   -2.2053 O   0  0  0  0  0  0  0  0  0  0  0  0
   -2.3803   -0.4086   -0.6106 N   0  0  0  0  0  0  0  0  0  0  0  0
   -2.6187   -1.5423   -1.4917 C   0  0  0  0  0  0  0  0  0  0  0  0
   -2.8688   -2.8026   -0.6671 C   0  0  0  0  0  0  0  0  0  0  0  0
   -4.0086   -2.5959    0.3317 C   0  0  0  0  0  0  0  0  0  0  0  0
   -3.7946   -1.3321    1.1646 C   0  0  0  0  0  0  0  0  0  0  0  0
   -3.5048   -0.1298    0.2725 C   0  0  0  0  0  0  0  0  0  0  0  0
    0.7338    0.0688   -1.1555 C   0  0  0  0  0  0  0  0  0  0  0  0
   -0.1509    0.6277    0.7953 C   0  0  0  0  0  0  0  0  0  0  0  0
    1.1716    0.4393    1.8539 C   0  0  0  0  0  0  0  0  0  0  0  0
    2.4728    0.8775    1.1334 C   0  0  0  0  0  0  0  0  0  0  0  0
    3.0249   -4.3196   -0.0887 H   0  0  0  0  0  0  0  0  0  0  0  0
    4.2471   -3.4269    0.8604 H   0  0  0  0  0  0  0  0  0  0  0  0
    4.1751   -3.2637   -0.9155 H   0  0  0  0  0  0  0  0  0  0  0  0
    3.9460   -1.0556   -0.8670 H   0  0  0  0  0  0  0  0  0  0  0  0
    2.9627    1.0590   -2.2025 H   0  0  0  0  0  0  0  0  0  0  0  0
    3.8923    1.5244   -0.7568 H   0  0  0  0  0  0  0  0  0  0  0  0
    2.3530    3.1472   -0.5633 H   0  0  0  0  0  0  0  0  0  0  0  0
    1.2276    2.4042   -1.6386 H   0  0  0  0  0  0  0  0  0  0  0  0
    0.0842    2.2690    2.6861 H   0  0  0  0  0  0  0  0  0  0  0  0
    2.5590    3.2523    2.3242 H   0  0  0  0  0  0  0  0  0  0  0  0
    1.2004    4.5457    0.0824 H   0  0  0  0  0  0  0  0  0  0  0  0
   -0.4450    3.5491   -1.3400 H   0  0  0  0  0  0  0  0  0  0  0  0
   -1.4296    3.2962    0.1543 H   0  0  0  0  0  0  0  0  0  0  0  0
   -1.7443   -1.6813   -2.1380 H   0  0  0  0  0  0  0  0  0  0  0  0
   -3.4709   -1.3145   -2.1435 H   0  0  0  0  0  0  0  0  0  0  0  0
   -3.0952   -3.6469   -1.3265 H   0  0  0  0  0  0  0  0  0  0  0  0
   -1.9552   -3.0606   -0.1162 H   0  0  0  0  0  0  0  0  0  0  0  0
   -4.9561   -2.5150   -0.2138 H   0  0  0  0  0  0  0  0  0  0  0  0
   -4.0907   -3.4678    0.9899 H   0  0  0  0  0  0  0  0  0  0  0  0
   -4.6772   -1.1387    1.7834 H   0  0  0  0  0  0  0  0  0  0  0  0
   -2.9478   -1.4909    1.8443 H   0  0  0  0  0  0  0  0  0  0  0  0
   -4.3766    0.1227   -0.3450 H   0  0  0  0  0  0  0  0  0  0  0  0
   -3.2848    0.7540    0.8824 H   0  0  0  0  0  0  0  0  0  0  0  0
    0.3719   -0.9608   -1.0213 H   0  0  0  0  0  0  0  0  0  0  0  0
    0.8509    0.1914   -2.2415 H   0  0  0  0  0  0  0  0  0  0  0  0
   -1.0545    0.7359    1.4175 H   0  0  0  0  0  0  0  0  0  0  0  0
    1.1433   -0.2332    2.7057 H   0  0  0  0  0  0  0  0  0  0  0  0
    3.4051    0.5849    1.6337 H   0  0  0  0  0  0  0  0  0  0  0  0
  2  1  1  0  0  0  0
  3  2  2  0  0  0  0
  4  2  1  0  0  0  0
  5  4  1  0  0  0  0
  6  5  1  0  0  0  0
  7  6  1  0  0  0  0
  8  7  1  0  0  0  0
  9  8  1  0  0  0  0
 10  9  1  0  0  0  0
 11 10  1  0  0  0  0
 12 11  1  0  0  0  0
 13 12  1  0  0  0  0
 14 13  1  0  0  0  0
 15 14  2  0  0  0  0
 16 14  1  0  0  0  0
 17 16  1  0  0  0  0
 18 17  1  0  0  0  0
 19 18  1  0  0  0  0
 20 19  1  0  0  0  0
 21 20  1  0  0  0  0
 21 16  1  0  0  0  0
 22 13  1  0  0  0  0
 22  5  1  0  0  0  0
 23 13  1  0  0  0  0
 23  8  1  0  0  0  0
 24 23  1  0  0  0  0
 24  9  1  0  0  0  0
 25 24  1  0  0  0  0
 25 10  1  0  0  0  0
 25  5  1  0  0  0  0
  1 26  1  0  0  0  0
  1 27  1  0  0  0  0
  1 28  1  0  0  0  0
  4 29  1  0  0  0  0
  6 30  1  0  0  0  0
  6 31  1  0  0  0  0
  7 32  1  0  0  0  0
  7 33  1  0  0  0  0
  9 34  1  0  0  0  0
 10 35  1  0  0  0  0
 11 36  1  0  0  0  0
 12 37  1  0  0  0  0
 12 38  1  0  0  0  0
 17 39  1  0  0  0  0
 17 40  1  0  0  0  0
 18 41  1  0  0  0  0
 18 42  1  0  0  0  0
 19 43  1  0  0  0  0
 19 44  1  0  0  0  0
 20 45  1  0  0  0  0
 20 46  1  0  0  0  0
 21 47  1  0  0  0  0
 21 48  1  0  0  0  0
 22 49  1  0  0  0  0
 22 50  1  0  0  0  0
 23 51  1  0  0  0  0
 24 52  1  0  0  0  0
 25 53  1  0  0  0  0
M  END
>  <energy>
628.51732928821139

$$$$
