C=CC1CC(=O)C2(O1)OC1CC=C3C4C5C(CC15O)C3(SC)C42
                    3D

 43 48  0  0  0  0  0  0  0  0999 V2000
   -4.5050    0.9579   -1.4204 C   0  0  0  0  0  0  0  0  0  0  0  0
   -3.6091    0.6051   -0.4880 C   0  0  0  0  0  0  0  0  0  0  0  0
   -2.9934   -0.7628   -0.3727 C   0  0  0  0  0  0  0  0  0  0  0  0
   -3.1591   -1.4058    0.9881 C   0  0  0  0  0  0  0  0  0  0  0  0
   -1.8699   -1.0296    1.6266 C   0  0  0  0  0  0  0  0  0  0  0  0
   -1.6397   -1.2159    2.8181 O   0  0  0  0  0  0  0  0  0  0  0  0
   -0.8720   -0.4771    0.5990 C   0  0  0  0  0  0  0  0  0  0  0  0
   -1.5921   -0.6680   -0.6373 O   0  0  0  0  0  0  0  0  0  0  0  0
   -0.7461    1.0117    1.0081 O   0  0  0  0  0  0  0  0  0  0  0  0
    0.3267    1.9450    0.4569 C   0  0  0  0  0  0  0  0  0  0  0  0
    0.2563    1.9555   -1.0693 C   0  0  0  0  0  0  0  0  0  0  0  0
    0.8814    0.6758   -1.4796 C   0  0  0  0  0  0  0  0  0  0  0  0
    1.2340   -0.1629   -0.5001 C   0  0  0  0  0  0  0  0  0  0  0  0
    0.9703   -0.2946    1.4176 C   0  0  0  0  0  0  0  0  0  0  0  0
    2.2282    0.3922    1.7061 C   0  0  0  0  0  0  0  0  0  0  0  0
    3.1323   -0.2343    0.6480 C   0  0  0  0  0  0  0  0  0  0  0  0
    3.2752    1.2782    0.1254 C   0  0  0  0  0  0  0  0  0  0  0  0
    1.9555    1.7554    1.0030 C   0  0  0  0  0  0  0  0  0  0  0  0
    2.2542    2.9048    1.8426 O   0  0  0  0  0  0  0  0  0  0  0  0
    2.0817   -1.2322   -0.1376 C   0  0  0  0  0  0  0  0  0  0  0  0
    2.6834   -2.4614   -1.2365 S   0  0  0  0  0  0  0  0  0  0  0  0
    1.1440   -2.9553   -2.0341 C   0  0  0  0  0  0  0  0  0  0  0  0
    0.5322   -1.4186    0.5984 C   0  0  0  0  0  0  0  0  0  0  0  0
   -4.8508    0.2612   -2.1791 H   0  0  0  0  0  0  0  0  0  0  0  0
   -4.9031    1.9678   -1.4505 H   0  0  0  0  0  0  0  0  0  0  0  0
   -3.2912    1.3589    0.2303 H   0  0  0  0  0  0  0  0  0  0  0  0
   -3.4278   -1.4164   -1.1397 H   0  0  0  0  0  0  0  0  0  0  0  0
   -4.0245   -1.0486    1.5502 H   0  0  0  0  0  0  0  0  0  0  0  0
   -3.1841   -2.4968    0.9058 H   0  0  0  0  0  0  0  0  0  0  0  0
    0.0124    2.9302    0.8249 H   0  0  0  0  0  0  0  0  0  0  0  0
   -0.7704    2.0226   -1.4376 H   0  0  0  0  0  0  0  0  0  0  0  0
    0.8388    2.7897   -1.4732 H   0  0  0  0  0  0  0  0  0  0  0  0
    1.2400    0.5357   -2.4937 H   0  0  0  0  0  0  0  0  0  0  0  0
    1.0711   -1.0159    2.2548 H   0  0  0  0  0  0  0  0  0  0  0  0
    2.5948    0.4350    2.7346 H   0  0  0  0  0  0  0  0  0  0  0  0
    4.0462   -0.7054    1.0182 H   0  0  0  0  0  0  0  0  0  0  0  0
    3.2758    1.4443   -0.9549 H   0  0  0  0  0  0  0  0  0  0  0  0
    4.1997    1.7455    0.4962 H   0  0  0  0  0  0  0  0  0  0  0  0
    2.3767    3.6437    1.2194 H   0  0  0  0  0  0  0  0  0  0  0  0
    0.6660   -2.1107   -2.5360 H   0  0  0  0  0  0  0  0  0  0  0  0
    1.3583   -3.7195   -2.7858 H   0  0  0  0  0  0  0  0  0  0  0  0
    0.4486   -3.3846   -1.3086 H   0  0  0  0  0  0  0  0  0  0  0  0
    0.3549   -2.3996    1.0621 H   0  0  0  0  0  0  0  0  0  0  0  0
  2  1  2  0  0  0  0
  3  2  1  0  0  0  0
  4  3  1  0  0  0  0
  5  4  1  0  0  0  0
  6  5  2  0  0  0  0
  7  5  1  0  0  0  0
  8  7  1  0  0  0  0
  8  3  1  0  0  0  0
  9  7  1  0  0  0  0
 10  9  1  0  0  0  0
 11 10  1  0  0  0  0
 12 11  1  0  0  0  0
 13 12  2  0  0  0  0
 14 13  1  0  0  0  0
 15 14  1  0  0  0  0
 16 15  1  0  0  0  0
 17 16  1  0  0  0  0
 18 17  1  0  0  0  0
 18 10  1  0  0  0  0
 18 15  1  0  0  0  0
 19 18  1  0  0  0  0
 20 16  1  0  0  0  0
 20 13  1  0  0  0  0
 21 20  1  0  0  0  0
 22 21  1  0  0  0  0
 23 20  1  0  0  0  0
 23 14  1  0  0  0  0
 23  7  1  0  0  0  0
  1 24  1  0  0  0  0
  1 25  1  0  0  0  0
  2 26  1  0  0  0  0
  3 27  1  0  0  0  0
  4 28  1  0  0  0  0
  4 29  1  0  0  0  0
 10 30  1  0  0  0  0
 11 31  1  0  0  0  0
 11 32  1  0  0  0  0
 12 33  1  0  0  0  0
 14 34  1  0  0  0  0
 15 35  1  0  0  0  0
 16 36  1  0  0  0  0
 17 37  1  0  0  0  0
 17 38  1  0  0  0  0
 19 39  1  0  0  0  0
 22 40  1  0  0  0  0
 22 41  1  0  0  0  0
 22 42  1  0  0  0  0
 23 43  1  0  0  0  0
M  END
>  <energy>
333.10911612896183

$$$$
