CC(C)C1(C)C2=CC#CC34C5CC(OC3C(C(O)CCO)C54)C1C2
                    3D

 52 56  0  0  0  0  0  0  0  0999 V2000
    4.0986    2.7057    0.8462 C   0  0  0  0  0  0  0  0  0  0  0  0
    3.9518    1.2339    0.4576 C   0  0  0  0  0  0  0  0  0  0  0  0
    4.9344    0.9509   -0.6905 C   0  0  0  0  0  0  0  0  0  0  0  0
    2.5014    0.7634    0.1027 C   0  0  0  0  0  0  0  0  0  0  0  0
    2.4761   -0.7684   -0.0554 C   0  0  0  0  0  0  0  0  0  0  0  0
    1.7460    1.5355   -1.0075 C   0  0  0  0  0  0  0  0  0  0  0  0
    1.3697    1.1675   -2.2549 C   0  0  0  0  0  0  0  0  0  0  0  0
   -0.0191    1.3010   -2.5678 C   0  0  0  0  0  0  0  0  0  0  0  0
   -1.0884    1.0995   -2.0619 C   0  0  0  0  0  0  0  0  0  0  0  0
   -1.6581    0.6371   -0.8498 C   0  0  0  0  0  0  0  0  0  0  0  0
   -2.0783    1.6344    0.1919 C   0  0  0  0  0  0  0  0  0  0  0  0
   -1.3411    1.5066    1.5142 C   0  0  0  0  0  0  0  0  0  0  0  0
   -0.0777    0.5917    1.4508 C   0  0  0  0  0  0  0  0  0  0  0  0
   -0.3272   -0.6674    0.7951 O   0  0  0  0  0  0  0  0  0  0  0  0
   -1.2620   -0.6971   -0.3206 C   0  0  0  0  0  0  0  0  0  0  0  0
   -2.7840   -0.9127    0.0260 C   0  0  0  0  0  0  0  0  0  0  0  0
   -3.5799   -1.9501   -0.7782 C   0  0  0  0  0  0  0  0  0  0  0  0
   -3.5017   -1.6576   -2.1785 O   0  0  0  0  0  0  0  0  0  0  0  0
   -3.0906   -3.3858   -0.5402 C   0  0  0  0  0  0  0  0  0  0  0  0
   -3.3414   -3.9118    0.8688 C   0  0  0  0  0  0  0  0  0  0  0  0
   -4.7346   -3.9176    1.1420 O   0  0  0  0  0  0  0  0  0  0  0  0
   -3.0086    0.5373   -0.3077 C   0  0  0  0  0  0  0  0  0  0  0  0
    1.2396    1.3298    0.9985 C   0  0  0  0  0  0  0  0  0  0  0  0
    1.0942    2.4950   -0.0236 C   0  0  0  0  0  0  0  0  0  0  0  0
    3.8807    3.3694    0.0034 H   0  0  0  0  0  0  0  0  0  0  0  0
    3.4564    2.9773    1.6878 H   0  0  0  0  0  0  0  0  0  0  0  0
    5.1294    2.9147    1.1571 H   0  0  0  0  0  0  0  0  0  0  0  0
    4.2836    0.6507    1.3275 H   0  0  0  0  0  0  0  0  0  0  0  0
    4.5921    1.3982   -1.6302 H   0  0  0  0  0  0  0  0  0  0  0  0
    5.0716   -0.1212   -0.8588 H   0  0  0  0  0  0  0  0  0  0  0  0
    5.9267    1.3582   -0.4646 H   0  0  0  0  0  0  0  0  0  0  0  0
    1.5398   -1.1341   -0.4794 H   0  0  0  0  0  0  0  0  0  0  0  0
    3.2479   -1.1242   -0.7432 H   0  0  0  0  0  0  0  0  0  0  0  0
    2.6326   -1.2595    0.9111 H   0  0  0  0  0  0  0  0  0  0  0  0
    1.9131    0.3699   -2.7558 H   0  0  0  0  0  0  0  0  0  0  0  0
   -2.3371    2.6513   -0.0725 H   0  0  0  0  0  0  0  0  0  0  0  0
   -1.0682    2.5021    1.8851 H   0  0  0  0  0  0  0  0  0  0  0  0
   -2.0450    1.0801    2.2411 H   0  0  0  0  0  0  0  0  0  0  0  0
    0.1187    0.2950    2.4905 H   0  0  0  0  0  0  0  0  0  0  0  0
   -0.8937   -1.3973   -1.0782 H   0  0  0  0  0  0  0  0  0  0  0  0
   -2.9517   -1.0667    1.1054 H   0  0  0  0  0  0  0  0  0  0  0  0
   -4.6382   -1.8762   -0.5083 H   0  0  0  0  0  0  0  0  0  0  0  0
   -2.6250   -1.9169   -2.5087 H   0  0  0  0  0  0  0  0  0  0  0  0
   -3.6075   -4.0397   -1.2566 H   0  0  0  0  0  0  0  0  0  0  0  0
   -2.0228   -3.4702   -0.7746 H   0  0  0  0  0  0  0  0  0  0  0  0
   -2.9670   -4.9384    0.9571 H   0  0  0  0  0  0  0  0  0  0  0  0
   -2.8390   -3.2983    1.6224 H   0  0  0  0  0  0  0  0  0  0  0  0
   -4.8506   -4.2733    2.0399 H   0  0  0  0  0  0  0  0  0  0  0  0
   -3.8346    0.7338   -0.9741 H   0  0  0  0  0  0  0  0  0  0  0  0
    1.6133    1.7370    1.9524 H   0  0  0  0  0  0  0  0  0  0  0  0
    1.6631    3.3987    0.2157 H   0  0  0  0  0  0  0  0  0  0  0  0
    0.0926    2.8590   -0.2485 H   0  0  0  0  0  0  0  0  0  0  0  0
  2  1  1  0  0  0  0
  3  2  1  0  0  0  0
  4  2  1  0  0  0  0
  5  4  1  0  0  0  0
  6  4  1  0  0  0  0
  7  6  2  0  0  0  0
  8  7  1  0  0  0  0
  9  8  3  0  0  0  0
 10  9  1  0  0  0  0
 11 10  1  0  0  0  0
 12 11  1  0  0  0  0
 13 12  1  0  0  0  0
 14 13  1  0  0  0  0
 15 14  1  0  0  0  0
 15 10  1  0  0  0  0
 16 15  1  0  0  0  0
 17 16  1  0  0  0  0
 18 17  1  0  0  0  0
 19 17  1  0  0  0  0
 20 19  1  0  0  0  0
 21 20  1  0  0  0  0
 22 16  1  0  0  0  0
 22 11  1  0  0  0  0
 22 10  1  0  0  0  0
 23 13  1  0  0  0  0
 23  4  1  0  0  0  0
 24 23  1  0  0  0  0
 24  6  1  0  0  0  0
  1 25  1  0  0  0  0
  1 26  1  0  0  0  0
  1 27  1  0  0  0  0
  2 28  1  0  0  0  0
  3 29  1  0  0  0  0
  3 30  1  0  0  0  0
  3 31  1  0  0  0  0
  5 32  1  0  0  0  0
  5 33  1  0  0  0  0
  5 34  1  0  0  0  0
  7 35  1  0  0  0  0
 11 36  1  0  0  0  0
 12 37  1  0  0  0  0
 12 38  1  0  0  0  0
 13 39  1  0  0  0  0
 15 40  1  0  0  0  0
 16 41  1  0  0  0  0
 17 42  1  0  0  0  0
 18 43  1  0  0  0  0
 19 44  1  0  0  0  0
 19 45  1  0  0  0  0
 20 46  1  0  0  0  0
 20 47  1  0  0  0  0
 21 48  1  0  0  0  0
 22 49  1  0  0  0  0
 23 50  1  0  0  0  0
 24 51  1  0  0  0  0
 24 52  1  0  0  0  0
M  END
>  <energy>
145.96199405446492

$$$$
