CC(C)=CCCC(C)=CCSCC1OC2C3C(O)C4C5(O)CCN(C)C(O1)C2(O)C(C)(C35)C4(C)C
                    3D

 80 84  0  0  0  0  0  0  0  0999 V2000
   -4.1005    3.7377    1.5346 C   0  0  0  0  0  0  0  0  0  0  0  0
   -4.3838    2.7067    0.4741 C   0  0  0  0  0  0  0  0  0  0  0  0
   -4.4731    3.2597   -0.9210 C   0  0  0  0  0  0  0  0  0  0  0  0
   -4.5063    1.4070    0.8001 C   0  0  0  0  0  0  0  0  0  0  0  0
   -4.7633    0.2455   -0.1238 C   0  0  0  0  0  0  0  0  0  0  0  0
   -3.4441   -0.3927   -0.5721 C   0  0  0  0  0  0  0  0  0  0  0  0
   -3.6413   -1.7051   -1.2997 C   0  0  0  0  0  0  0  0  0  0  0  0
   -4.0320   -1.5737   -2.7494 C   0  0  0  0  0  0  0  0  0  0  0  0
   -3.4612   -2.9240   -0.7477 C   0  0  0  0  0  0  0  0  0  0  0  0
   -3.0815   -3.2451    0.6688 C   0  0  0  0  0  0  0  0  0  0  0  0
   -1.6623   -4.3883    0.6681 S   0  0  0  0  0  0  0  0  0  0  0  0
   -0.6564   -3.6471    2.0224 C   0  0  0  0  0  0  0  0  0  0  0  0
    0.3363   -2.5641    1.5533 C   0  0  0  0  0  0  0  0  0  0  0  0
   -0.3851   -1.5042    0.9478 O   0  0  0  0  0  0  0  0  0  0  0  0
    0.3536   -0.5238    0.2315 C   0  0  0  0  0  0  0  0  0  0  0  0
    1.2999    0.3282    1.0290 C   0  0  0  0  0  0  0  0  0  0  0  0
    1.0402    1.8289    1.1054 C   0  0  0  0  0  0  0  0  0  0  0  0
   -0.2678    2.2204    0.7842 O   0  0  0  0  0  0  0  0  0  0  0  0
    2.1328    2.3071    0.1669 C   0  0  0  0  0  0  0  0  0  0  0  0
    3.3864    1.4974    0.6613 C   0  0  0  0  0  0  0  0  0  0  0  0
    4.5629    1.8686   -0.0203 O   0  0  0  0  0  0  0  0  0  0  0  0
    3.7708    0.8480    2.0632 C   0  0  0  0  0  0  0  0  0  0  0  0
    3.4811   -0.8024    2.3696 C   0  0  0  0  0  0  0  0  0  0  0  0
    3.2558   -1.9855    1.4330 N   0  0  0  0  0  0  0  0  0  0  0  0
    4.4661   -2.7886    1.2544 C   0  0  0  0  0  0  0  0  0  0  0  0
    2.2618   -2.2077    0.2615 C   0  0  0  0  0  0  0  0  0  0  0  0
    1.2872   -3.1649    0.6898 O   0  0  0  0  0  0  0  0  0  0  0  0
    1.3822   -1.0799   -0.7163 C   0  0  0  0  0  0  0  0  0  0  0  0
    0.7558   -1.7468   -1.8099 O   0  0  0  0  0  0  0  0  0  0  0  0
    2.2473    0.1737   -1.2303 C   0  0  0  0  0  0  0  0  0  0  0  0
    3.2750   -0.3061   -2.2652 C   0  0  0  0  0  0  0  0  0  0  0  0
    2.7291    0.2995    0.1630 C   0  0  0  0  0  0  0  0  0  0  0  0
    1.8708    1.7274   -1.3628 C   0  0  0  0  0  0  0  0  0  0  0  0
    0.4822    1.9821   -1.9733 C   0  0  0  0  0  0  0  0  0  0  0  0
    2.8133    2.5212   -2.3212 C   0  0  0  0  0  0  0  0  0  0  0  0
   -4.9062    4.4777    1.5696 H   0  0  0  0  0  0  0  0  0  0  0  0
   -4.0116    3.2945    2.5319 H   0  0  0  0  0  0  0  0  0  0  0  0
   -3.1600    4.2553    1.3193 H   0  0  0  0  0  0  0  0  0  0  0  0
   -4.6552    2.4942   -1.6792 H   0  0  0  0  0  0  0  0  0  0  0  0
   -5.2864    3.9905   -0.9836 H   0  0  0  0  0  0  0  0  0  0  0  0
   -3.5362    3.7626   -1.1850 H   0  0  0  0  0  0  0  0  0  0  0  0
   -4.3958    1.1207    1.8463 H   0  0  0  0  0  0  0  0  0  0  0  0
   -5.3656    0.5489   -0.9876 H   0  0  0  0  0  0  0  0  0  0  0  0
   -5.3735   -0.4882    0.4203 H   0  0  0  0  0  0  0  0  0  0  0  0
   -2.9020    0.3010   -1.2286 H   0  0  0  0  0  0  0  0  0  0  0  0
   -2.7922   -0.5241    0.2958 H   0  0  0  0  0  0  0  0  0  0  0  0
   -3.2735   -1.0030   -3.2962 H   0  0  0  0  0  0  0  0  0  0  0  0
   -4.1333   -2.5455   -3.2448 H   0  0  0  0  0  0  0  0  0  0  0  0
   -4.9914   -1.0551   -2.8421 H   0  0  0  0  0  0  0  0  0  0  0  0
   -3.6275   -3.8003   -1.3753 H   0  0  0  0  0  0  0  0  0  0  0  0
   -2.8714   -2.3593    1.2686 H   0  0  0  0  0  0  0  0  0  0  0  0
   -3.9196   -3.7626    1.1478 H   0  0  0  0  0  0  0  0  0  0  0  0
   -1.3378   -3.2479    2.7799 H   0  0  0  0  0  0  0  0  0  0  0  0
   -0.0979   -4.4755    2.4716 H   0  0  0  0  0  0  0  0  0  0  0  0
    0.8306   -2.1903    2.4555 H   0  0  0  0  0  0  0  0  0  0  0  0
   -0.4172    0.0310   -0.2904 H   0  0  0  0  0  0  0  0  0  0  0  0
    1.3153   -0.0145    2.0582 H   0  0  0  0  0  0  0  0  0  0  0  0
    1.2425    2.1949    2.1186 H   0  0  0  0  0  0  0  0  0  0  0  0
   -0.3004    3.1923    0.7629 H   0  0  0  0  0  0  0  0  0  0  0  0
    2.2624    3.3927    0.1616 H   0  0  0  0  0  0  0  0  0  0  0  0
    5.1452    1.0934   -0.1015 H   0  0  0  0  0  0  0  0  0  0  0  0
    4.8547    0.9681    2.1972 H   0  0  0  0  0  0  0  0  0  0  0  0
    3.3010    1.4164    2.8738 H   0  0  0  0  0  0  0  0  0  0  0  0
    4.3464   -1.0641    2.9979 H   0  0  0  0  0  0  0  0  0  0  0  0
    2.6812   -0.8428    3.1189 H   0  0  0  0  0  0  0  0  0  0  0  0
    4.2302   -3.7947    0.8914 H   0  0  0  0  0  0  0  0  0  0  0  0
    4.9979   -2.9379    2.2010 H   0  0  0  0  0  0  0  0  0  0  0  0
    5.1488   -2.3092    0.5453 H   0  0  0  0  0  0  0  0  0  0  0  0
    2.8306   -2.7517   -0.5041 H   0  0  0  0  0  0  0  0  0  0  0  0
    0.1746   -2.4274   -1.4106 H   0  0  0  0  0  0  0  0  0  0  0  0
    4.2044    0.2688   -2.2360 H   0  0  0  0  0  0  0  0  0  0  0  0
    3.5669   -1.3493   -2.1095 H   0  0  0  0  0  0  0  0  0  0  0  0
    2.8537   -0.2439   -3.2740 H   0  0  0  0  0  0  0  0  0  0  0  0
    3.5339   -0.4239    0.1578 H   0  0  0  0  0  0  0  0  0  0  0  0
    0.4581    1.6473   -3.0171 H   0  0  0  0  0  0  0  0  0  0  0  0
    0.2494    3.0533   -1.9644 H   0  0  0  0  0  0  0  0  0  0  0  0
   -0.3477    1.4815   -1.4891 H   0  0  0  0  0  0  0  0  0  0  0  0
    2.6901    2.1931   -3.3603 H   0  0  0  0  0  0  0  0  0  0  0  0
    2.5782    3.5916   -2.2883 H   0  0  0  0  0  0  0  0  0  0  0  0
    3.8745    2.4323   -2.0922 H   0  0  0  0  0  0  0  0  0  0  0  0
  2  1  1  0  0  0  0
  3  2  1  0  0  0  0
  4  2  2  0  0  0  0
  5  4  1  0  0  0  0
  6  5  1  0  0  0  0
  7  6  1  0  0  0  0
  8  7  1  0  0  0  0
  9  7  2  0  0  0  0
 10  9  1  0  0  0  0
 11 10  1  0  0  0  0
 12 11  1  0  0  0  0
 13 12  1  0  0  0  0
 14 13  1  0  0  0  0
 15 14  1  0  0  0  0
 16 15  1  0  0  0  0
 17 16  1  0  0  0  0
 18 17  1  0  0  0  0
 19 17  1  0  0  0  0
 20 19  1  0  0  0  0
 21 20  1  0  0  0  0
 22 20  1  0  0  0  0
 23 22  1  0  0  0  0
 24 23  1  0  0  0  0
 25 24  1  0  0  0  0
 26 24  1  0  0  0  0
 27 26  1  0  0  0  0
 27 13  1  0  0  0  0
 28 26  1  0  0  0  0
 28 15  1  0  0  0  0
 29 28  1  0  0  0  0
 30 28  1  0  0  0  0
 31 30  1  0  0  0  0
 32 30  1  0  0  0  0
 32 16  1  0  0  0  0
 32 20  1  0  0  0  0
 33 30  1  0  0  0  0
 33 19  1  0  0  0  0
 34 33  1  0  0  0  0
 35 33  1  0  0  0  0
  1 36  1  0  0  0  0
  1 37  1  0  0  0  0
  1 38  1  0  0  0  0
  3 39  1  0  0  0  0
  3 40  1  0  0  0  0
  3 41  1  0  0  0  0
  4 42  1  0  0  0  0
  5 43  1  0  0  0  0
  5 44  1  0  0  0  0
  6 45  1  0  0  0  0
  6 46  1  0  0  0  0
  8 47  1  0  0  0  0
  8 48  1  0  0  0  0
  8 49  1  0  0  0  0
  9 50  1  0  0  0  0
 10 51  1  0  0  0  0
 10 52  1  0  0  0  0
 12 53  1  0  0  0  0
 12 54  1  0  0  0  0
 13 55  1  0  0  0  0
 15 56  1  0  0  0  0
 16 57  1  0  0  0  0
 17 58  1  0  0  0  0
 18 59  1  0  0  0  0
 19 60  1  0  0  0  0
 21 61  1  0  0  0  0
 22 62  1  0  0  0  0
 22 63  1  0  0  0  0
 23 64  1  0  0  0  0
 23 65  1  0  0  0  0
 25 66  1  0  0  0  0
 25 67  1  0  0  0  0
 25 68  1  0  0  0  0
 26 69  1  0  0  0  0
 29 70  1  0  0  0  0
 31 71  1  0  0  0  0
 31 72  1  0  0  0  0
 31 73  1  0  0  0  0
 32 74  1  0  0  0  0
 34 75  1  0  0  0  0
 34 76  1  0  0  0  0
 34 77  1  0  0  0  0
 35 78  1  0  0  0  0
 35 79  1  0  0  0  0
 35 80  1  0  0  0  0
M  END
>  <energy>
332.38845068503502

$$$$
