OC1C2OCC3C4CC3C1(O4)O2
                    3D

 22 25  0  0  0  0  0  0  0  0999 V2000
   -2.5929    1.2448    1.0976 O   0  0  0  0  0  0  0  0  0  0  0  0
   -1.6208    0.2904    0.5757 C   0  0  0  0  0  0  0  0  0  0  0  0
   -1.8446   -0.2239   -0.8321 C   0  0  0  0  0  0  0  0  0  0  0  0
   -1.0206   -1.4006   -1.1146 O   0  0  0  0  0  0  0  0  0  0  0  0
   -0.1106   -1.8827   -0.0521 C   0  0  0  0  0  0  0  0  0  0  0  0
    1.0269   -0.8786    0.3447 C   0  0  0  0  0  0  0  0  0  0  0  0
    1.3193    0.7358    1.0264 C   0  0  0  0  0  0  0  0  0  0  0  0
    2.2005    0.8046   -0.2522 C   0  0  0  0  0  0  0  0  0  0  0  0
    0.9121    0.0944   -0.8093 C   0  0  0  0  0  0  0  0  0  0  0  0
   -0.3380    0.9216   -0.2102 C   0  0  0  0  0  0  0  0  0  0  0  0
    0.2587    1.7466    0.7775 O   0  0  0  0  0  0  0  0  0  0  0  0
   -1.3079    1.1764   -1.2686 O   0  0  0  0  0  0  0  0  0  0  0  0
   -2.4796    2.0193    0.5118 H   0  0  0  0  0  0  0  0  0  0  0  0
   -1.4137   -0.4282    1.3666 H   0  0  0  0  0  0  0  0  0  0  0  0
   -2.8821   -0.3523   -1.1513 H   0  0  0  0  0  0  0  0  0  0  0  0
    0.3586   -2.7761   -0.4819 H   0  0  0  0  0  0  0  0  0  0  0  0
   -0.6843   -2.2323    0.8117 H   0  0  0  0  0  0  0  0  0  0  0  0
    1.9430   -1.4863    0.4151 H   0  0  0  0  0  0  0  0  0  0  0  0
    1.8033    0.8141    2.0002 H   0  0  0  0  0  0  0  0  0  0  0  0
    3.1329    0.2316   -0.2585 H   0  0  0  0  0  0  0  0  0  0  0  0
    2.3928    1.8070   -0.6453 H   0  0  0  0  0  0  0  0  0  0  0  0
    0.9470   -0.2257   -1.8512 H   0  0  0  0  0  0  0  0  0  0  0  0
  2  1  1  0  0  0  0
  3  2  1  0  0  0  0
  4  3  1  0  0  0  0
  5  4  1  0  0  0  0
  6  5  1  0  0  0  0
  7  6  1  0  0  0  0
  8  7  1  0  0  0  0
  9  8  1  0  0  0  0
  9  6  1  0  0  0  0
 10  9  1  0  0  0  0
 10  2  1  0  0  0  0
 11 10  1  0  0  0  0
 11  7  1  0  0  0  0
 12 10  1  0  0  0  0
 12  3  1  0  0  0  0
  1 13  1  0  0  0  0
  2 14  1  0  0  0  0
  3 15  1  0  0  0  0
  5 16  1  0  0  0  0
  5 17  1  0  0  0  0
  6 18  1  0  0  0  0
  7 19  1  0  0  0  0
  8 20  1  0  0  0  0
  8 21  1  0  0  0  0
  9 22  1  0  0  0  0
M  END
>  <energy>
145.18731198633913

$$$$
