OC1OC2C3CCC24OCOC14O3
                    3D

 23 26  0  0  0  0  0  0  0  0999 V2000
   -2.9237    0.0496   -1.0172 O   0  0  0  0  0  0  0  0  0  0  0  0
   -2.0009    0.0904    0.0615 C   0  0  0  0  0  0  0  0  0  0  0  0
   -1.7109   -1.2455    0.5080 O   0  0  0  0  0  0  0  0  0  0  0  0
   -0.2780   -1.3321    0.4631 C   0  0  0  0  0  0  0  0  0  0  0  0
    0.2420   -1.3521   -1.0041 C   0  0  0  0  0  0  0  0  0  0  0  0
    1.7445   -1.1568   -0.8363 C   0  0  0  0  0  0  0  0  0  0  0  0
    1.7817   -0.0767    0.2509 C   0  0  0  0  0  0  0  0  0  0  0  0
    0.3079    0.0439    0.6730 C   0  0  0  0  0  0  0  0  0  0  0  0
    0.1025    0.8815    1.7794 O   0  0  0  0  0  0  0  0  0  0  0  0
   -0.1092    2.1729    1.1527 C   0  0  0  0  0  0  0  0  0  0  0  0
   -0.4127    2.0135   -0.2535 O   0  0  0  0  0  0  0  0  0  0  0  0
   -0.6080    0.6253   -0.3715 C   0  0  0  0  0  0  0  0  0  0  0  0
   -0.2332   -0.0755   -1.5746 O   0  0  0  0  0  0  0  0  0  0  0  0
   -2.3782   -0.0371   -1.8212 H   0  0  0  0  0  0  0  0  0  0  0  0
   -2.4514    0.6535    0.8847 H   0  0  0  0  0  0  0  0  0  0  0  0
    0.0941   -2.1295    1.1113 H   0  0  0  0  0  0  0  0  0  0  0  0
   -0.0786   -2.1873   -1.6291 H   0  0  0  0  0  0  0  0  0  0  0  0
    2.2295   -0.8066   -1.7526 H   0  0  0  0  0  0  0  0  0  0  0  0
    2.2333   -2.0740   -0.4926 H   0  0  0  0  0  0  0  0  0  0  0  0
    2.4127   -0.3834    1.0922 H   0  0  0  0  0  0  0  0  0  0  0  0
    2.1798    0.8707   -0.1285 H   0  0  0  0  0  0  0  0  0  0  0  0
    0.7981    2.7766    1.2533 H   0  0  0  0  0  0  0  0  0  0  0  0
   -0.9413    2.6785    1.6515 H   0  0  0  0  0  0  0  0  0  0  0  0
  2  1  1  0  0  0  0
  3  2  1  0  0  0  0
  4  3  1  0  0  0  0
  5  4  1  0  0  0  0
  6  5  1  0  0  0  0
  7  6  1  0  0  0  0
  8  7  1  0  0  0  0
  8  4  1  0  0  0  0
  9  8  1  0  0  0  0
 10  9  1  0  0  0  0
 11 10  1  0  0  0  0
 12 11  1  0  0  0  0
 12  2  1  0  0  0  0
 12  8  1  0  0  0  0
 13 12  1  0  0  0  0
 13  5  1  0  0  0  0
  1 14  1  0  0  0  0
  2 15  1  0  0  0  0
  4 16  1  0  0  0  0
  5 17  1  0  0  0  0
  6 18  1  0  0  0  0
  6 19  1  0  0  0  0
  7 20  1  0  0  0  0
  7 21  1  0  0  0  0
 10 22  1  0  0  0  0
 10 23  1  0  0  0  0
M  END
>  <energy>
116.63610964085984

$$$$
