C=C1C2C3CC4(C(=O)NC)C1C1(CC(NC=N)(CCC1C(C)(C)C)C2O)C34
                    3D

 60 64  0  0  0  0  0  0  0  0999 V2000
    0.8410   -1.7365    3.1861 C   0  0  0  0  0  0  0  0  0  0  0  0
    0.6160   -1.6380    1.8719 C   0  0  0  0  0  0  0  0  0  0  0  0
   -0.1641   -2.6375    1.0078 C   0  0  0  0  0  0  0  0  0  0  0  0
    0.6628   -2.6835   -0.2686 C   0  0  0  0  0  0  0  0  0  0  0  0
    2.2147   -2.6206   -0.1112 C   0  0  0  0  0  0  0  0  0  0  0  0
    2.0903   -1.0718   -0.1141 C   0  0  0  0  0  0  0  0  0  0  0  0
    3.2432   -0.2135   -0.6890 C   0  0  0  0  0  0  0  0  0  0  0  0
    3.2891    0.2094   -1.8449 O   0  0  0  0  0  0  0  0  0  0  0  0
    4.2313    0.0598    0.2355 N   0  0  0  0  0  0  0  0  0  0  0  0
    5.3465    0.9253   -0.0693 C   0  0  0  0  0  0  0  0  0  0  0  0
    1.2333   -0.4991    1.0424 C   0  0  0  0  0  0  0  0  0  0  0  0
    0.1317   -0.0244   -0.0271 C   0  0  0  0  0  0  0  0  0  0  0  0
   -1.1277    0.1154    0.8679 C   0  0  0  0  0  0  0  0  0  0  0  0
   -2.1735   -0.8449    0.3696 C   0  0  0  0  0  0  0  0  0  0  0  0
   -3.3833   -0.6437    1.2085 N   0  0  0  0  0  0  0  0  0  0  0  0
   -4.6533   -0.9619    0.8324 C   0  0  0  0  0  0  0  0  0  0  0  0
   -5.7224   -0.6061    1.4407 N   0  0  0  0  0  0  0  0  0  0  0  0
   -2.4979   -0.3507   -1.0884 C   0  0  0  0  0  0  0  0  0  0  0  0
   -1.3789    0.2899   -1.9663 C   0  0  0  0  0  0  0  0  0  0  0  0
   -0.1237    0.9033   -1.2415 C   0  0  0  0  0  0  0  0  0  0  0  0
   -0.1294    2.4622   -1.0258 C   0  0  0  0  0  0  0  0  0  0  0  0
   -1.5007    3.1243   -0.7755 C   0  0  0  0  0  0  0  0  0  0  0  0
    0.8276    2.8812    0.1021 C   0  0  0  0  0  0  0  0  0  0  0  0
    0.4095    3.1129   -2.3365 C   0  0  0  0  0  0  0  0  0  0  0  0
   -1.6650   -2.3486    0.5848 C   0  0  0  0  0  0  0  0  0  0  0  0
   -2.4502   -3.0113    1.6037 O   0  0  0  0  0  0  0  0  0  0  0  0
    0.7566   -1.2796   -0.8817 C   0  0  0  0  0  0  0  0  0  0  0  0
    0.4205   -2.5621    3.7584 H   0  0  0  0  0  0  0  0  0  0  0  0
    1.4417   -1.0074    3.7234 H   0  0  0  0  0  0  0  0  0  0  0  0
   -0.1256   -3.6236    1.4911 H   0  0  0  0  0  0  0  0  0  0  0  0
    0.3361   -3.4661   -0.9638 H   0  0  0  0  0  0  0  0  0  0  0  0
    2.6326   -3.0851    0.7877 H   0  0  0  0  0  0  0  0  0  0  0  0
    2.7563   -3.0183   -0.9771 H   0  0  0  0  0  0  0  0  0  0  0  0
    4.1165   -0.2541    1.1896 H   0  0  0  0  0  0  0  0  0  0  0  0
    5.6557    0.8042   -1.1105 H   0  0  0  0  0  0  0  0  0  0  0  0
    6.1772    0.6786    0.5973 H   0  0  0  0  0  0  0  0  0  0  0  0
    5.0415    1.9613    0.1010 H   0  0  0  0  0  0  0  0  0  0  0  0
    1.6913    0.2941    1.6425 H   0  0  0  0  0  0  0  0  0  0  0  0
   -1.5158    1.1314    0.8458 H   0  0  0  0  0  0  0  0  0  0  0  0
   -0.9645    0.0035    1.9454 H   0  0  0  0  0  0  0  0  0  0  0  0
   -3.2784   -0.0277    2.0048 H   0  0  0  0  0  0  0  0  0  0  0  0
   -4.7172   -1.5766   -0.0777 H   0  0  0  0  0  0  0  0  0  0  0  0
   -5.5075   -0.0503    2.2679 H   0  0  0  0  0  0  0  0  0  0  0  0
   -2.9856   -1.1489   -1.6615 H   0  0  0  0  0  0  0  0  0  0  0  0
   -3.2551    0.4448   -1.0014 H   0  0  0  0  0  0  0  0  0  0  0  0
   -1.8205    1.0183   -2.6588 H   0  0  0  0  0  0  0  0  0  0  0  0
   -1.0322   -0.5118   -2.6309 H   0  0  0  0  0  0  0  0  0  0  0  0
    0.7063    0.7707   -1.9487 H   0  0  0  0  0  0  0  0  0  0  0  0
   -2.2488    2.8366   -1.5181 H   0  0  0  0  0  0  0  0  0  0  0  0
   -1.9051    2.9151    0.2144 H   0  0  0  0  0  0  0  0  0  0  0  0
   -1.4191    4.2172   -0.8354 H   0  0  0  0  0  0  0  0  0  0  0  0
    0.4960    2.5046    1.0739 H   0  0  0  0  0  0  0  0  0  0  0  0
    1.8427    2.5154   -0.0818 H   0  0  0  0  0  0  0  0  0  0  0  0
    0.8844    3.9725    0.1898 H   0  0  0  0  0  0  0  0  0  0  0  0
    1.4096    2.7397   -2.5857 H   0  0  0  0  0  0  0  0  0  0  0  0
   -0.2559    2.9052   -3.1820 H   0  0  0  0  0  0  0  0  0  0  0  0
    0.4943    4.2007   -2.2403 H   0  0  0  0  0  0  0  0  0  0  0  0
   -1.8876   -2.9038   -0.3354 H   0  0  0  0  0  0  0  0  0  0  0  0
   -2.9774   -2.3126    2.0340 H   0  0  0  0  0  0  0  0  0  0  0  0
    0.8703   -1.2776   -1.9715 H   0  0  0  0  0  0  0  0  0  0  0  0
  2  1  2  0  0  0  0
  3  2  1  0  0  0  0
  4  3  1  0  0  0  0
  5  4  1  0  0  0  0
  6  5  1  0  0  0  0
  7  6  1  0  0  0  0
  8  7  2  0  0  0  0
  9  7  1  0  0  0  0
 10  9  1  0  0  0  0
 11  6  1  0  0  0  0
 11  2  1  0  0  0  0
 12 11  1  0  0  0  0
 13 12  1  0  0  0  0
 14 13  1  0  0  0  0
 15 14  1  0  0  0  0
 16 15  1  0  0  0  0
 17 16  2  0  0  0  0
 18 14  1  0  0  0  0
 19 18  1  0  0  0  0
 20 19  1  0  0  0  0
 20 12  1  0  0  0  0
 21 20  1  0  0  0  0
 22 21  1  0  0  0  0
 23 21  1  0  0  0  0
 24 21  1  0  0  0  0
 25 14  1  0  0  0  0
 25  3  1  0  0  0  0
 26 25  1  0  0  0  0
 27 12  1  0  0  0  0
 27  4  1  0  0  0  0
 27  6  1  0  0  0  0
  1 28  1  0  0  0  0
  1 29  1  0  0  0  0
  3 30  1  0  0  0  0
  4 31  1  0  0  0  0
  5 32  1  0  0  0  0
  5 33  1  0  0  0  0
  9 34  1  0  0  0  0
 10 35  1  0  0  0  0
 10 36  1  0  0  0  0
 10 37  1  0  0  0  0
 11 38  1  0  0  0  0
 13 39  1  0  0  0  0
 13 40  1  0  0  0  0
 15 41  1  0  0  0  0
 16 42  1  0  0  0  0
 17 43  1  0  0  0  0
 18 44  1  0  0  0  0
 18 45  1  0  0  0  0
 19 46  1  0  0  0  0
 19 47  1  0  0  0  0
 20 48  1  0  0  0  0
 22 49  1  0  0  0  0
 22 50  1  0  0  0  0
 22 51  1  0  0  0  0
 23 52  1  0  0  0  0
 23 53  1  0  0  0  0
 23 54  1  0  0  0  0
 24 55  1  0  0  0  0
 24 56  1  0  0  0  0
 24 57  1  0  0  0  0
 25 58  1  0  0  0  0
 26 59  1  0  0  0  0
 27 60  1  0  0  0  0
M  END
>  <energy>
115.00820175819288

$$$$
