CCOC(=O)c1c[nH]c2c1C1=C3C=C(Cl)C=C(C3)NC=C1C2=NCCCCCBr
                    3D

 52 55  0  0  0  0  0  0  0  0999 V2000
   -4.6166    1.5855   -3.1163 C   0  0  0  0  0  0  0  0  0  0  0  0
   -4.2115    1.9387   -1.7040 C   0  0  0  0  0  0  0  0  0  0  0  0
   -3.4346    0.8721   -1.1463 O   0  0  0  0  0  0  0  0  0  0  0  0
   -3.5912    0.7634    0.1994 C   0  0  0  0  0  0  0  0  0  0  0  0
   -4.6741    0.7800    0.7785 O   0  0  0  0  0  0  0  0  0  0  0  0
   -2.3118    0.8526    0.8735 C   0  0  0  0  0  0  0  0  0  0  0  0
   -1.9076    1.9604    1.6221 C   0  0  0  0  0  0  0  0  0  0  0  0
   -0.6215    1.7618    2.0853 N   0  0  0  0  0  0  0  0  0  0  0  0
   -0.2096    0.5383    1.6625 C   0  0  0  0  0  0  0  0  0  0  0  0
   -1.2455   -0.0464    0.9535 C   0  0  0  0  0  0  0  0  0  0  0  0
   -0.9095   -1.4022    0.6723 C   0  0  0  0  0  0  0  0  0  0  0  0
   -1.6797   -2.3896    0.1611 C   0  0  0  0  0  0  0  0  0  0  0  0
   -2.1278   -2.3463   -1.2521 C   0  0  0  0  0  0  0  0  0  0  0  0
   -1.4352   -3.0899   -2.1534 C   0  0  0  0  0  0  0  0  0  0  0  0
   -1.8424   -3.0952   -3.8246 Cl  0  0  0  0  0  0  0  0  0  0  0  0
   -0.1961   -3.7890   -1.7445 C   0  0  0  0  0  0  0  0  0  0  0  0
   -0.0167   -4.0032   -0.4170 C   0  0  0  0  0  0  0  0  0  0  0  0
   -1.2438   -3.8087    0.4502 C   0  0  0  0  0  0  0  0  0  0  0  0
    1.1962   -3.7953    0.2397 N   0  0  0  0  0  0  0  0  0  0  0  0
    1.3508   -2.6220    1.0042 C   0  0  0  0  0  0  0  0  0  0  0  0
    0.4772   -1.6148    1.2217 C   0  0  0  0  0  0  0  0  0  0  0  0
    0.9408   -0.3080    1.8275 C   0  0  0  0  0  0  0  0  0  0  0  0
    2.1162   -0.1003    2.2852 N   0  0  0  0  0  0  0  0  0  0  0  0
    2.6396    1.1707    2.7295 C   0  0  0  0  0  0  0  0  0  0  0  0
    4.0478    1.3317    2.1431 C   0  0  0  0  0  0  0  0  0  0  0  0
    4.0893    2.0760    0.8021 C   0  0  0  0  0  0  0  0  0  0  0  0
    3.3523    1.3639   -0.3379 C   0  0  0  0  0  0  0  0  0  0  0  0
    3.5144    2.1512   -1.6240 C   0  0  0  0  0  0  0  0  0  0  0  0
    2.5673    1.2947   -3.0882 Br  0  0  0  0  0  0  0  0  0  0  0  0
   -5.4003    0.8234   -3.1060 H   0  0  0  0  0  0  0  0  0  0  0  0
   -5.0032    2.4671   -3.6395 H   0  0  0  0  0  0  0  0  0  0  0  0
   -3.7759    1.1740   -3.6805 H   0  0  0  0  0  0  0  0  0  0  0  0
   -5.0992    2.1867   -1.1076 H   0  0  0  0  0  0  0  0  0  0  0  0
   -3.5662    2.8250   -1.7205 H   0  0  0  0  0  0  0  0  0  0  0  0
   -2.4437    2.8647    1.8778 H   0  0  0  0  0  0  0  0  0  0  0  0
   -0.1269    2.3787    2.7132 H   0  0  0  0  0  0  0  0  0  0  0  0
   -3.0002   -1.7561   -1.5179 H   0  0  0  0  0  0  0  0  0  0  0  0
    0.6387   -3.7600   -2.4336 H   0  0  0  0  0  0  0  0  0  0  0  0
   -2.0295   -4.5356    0.2070 H   0  0  0  0  0  0  0  0  0  0  0  0
   -1.0414   -3.9455    1.5198 H   0  0  0  0  0  0  0  0  0  0  0  0
    2.0045   -3.9063   -0.3734 H   0  0  0  0  0  0  0  0  0  0  0  0
    2.3759   -2.5427    1.3744 H   0  0  0  0  0  0  0  0  0  0  0  0
    2.7219    1.1245    3.8176 H   0  0  0  0  0  0  0  0  0  0  0  0
    2.0272    2.0401    2.4758 H   0  0  0  0  0  0  0  0  0  0  0  0
    4.6710    1.8999    2.8481 H   0  0  0  0  0  0  0  0  0  0  0  0
    4.5329    0.3556    2.0175 H   0  0  0  0  0  0  0  0  0  0  0  0
    5.1475    2.2042    0.5218 H   0  0  0  0  0  0  0  0  0  0  0  0
    3.6657    3.0810    0.9359 H   0  0  0  0  0  0  0  0  0  0  0  0
    2.2854    1.2711   -0.1067 H   0  0  0  0  0  0  0  0  0  0  0  0
    3.7382    0.3442   -0.4618 H   0  0  0  0  0  0  0  0  0  0  0  0
    4.5593    2.2187   -1.9305 H   0  0  0  0  0  0  0  0  0  0  0  0
    3.1022    3.1572   -1.5342 H   0  0  0  0  0  0  0  0  0  0  0  0
  2  1  1  0  0  0  0
  3  2  1  0  0  0  0
  4  3  1  0  0  0  0
  5  4  2  0  0  0  0
  6  4  1  0  0  0  0
  7  6  2  0  0  0  0
  8  7  1  0  0  0  0
  9  8  1  0  0  0  0
 10  9  2  0  0  0  0
 10  6  1  0  0  0  0
 11 10  1  0  0  0  0
 12 11  2  0  0  0  0
 13 12  1  0  0  0  0
 14 13  2  0  0  0  0
 15 14  1  0  0  0  0
 16 14  1  0  0  0  0
 17 16  2  0  0  0  0
 18 17  1  0  0  0  0
 18 12  1  0  0  0  0
 19 17  1  0  0  0  0
 20 19  1  0  0  0  0
 21 20  2  0  0  0  0
 21 11  1  0  0  0  0
 22 21  1  0  0  0  0
 22  9  1  0  0  0  0
 23 22  2  0  0  0  0
 24 23  1  0  0  0  0
 25 24  1  0  0  0  0
 26 25  1  0  0  0  0
 27 26  1  0  0  0  0
 28 27  1  0  0  0  0
 29 28  1  0  0  0  0
  1 30  1  0  0  0  0
  1 31  1  0  0  0  0
  1 32  1  0  0  0  0
  2 33  1  0  0  0  0
  2 34  1  0  0  0  0
  7 35  1  0  0  0  0
  8 36  1  0  0  0  0
 13 37  1  0  0  0  0
 16 38  1  0  0  0  0
 18 39  1  0  0  0  0
 18 40  1  0  0  0  0
 19 41  1  0  0  0  0
 20 42  1  0  0  0  0
 24 43  1  0  0  0  0
 24 44  1  0  0  0  0
 25 45  1  0  0  0  0
 25 46  1  0  0  0  0
 26 47  1  0  0  0  0
 26 48  1  0  0  0  0
 27 49  1  0  0  0  0
 27 50  1  0  0  0  0
 28 51  1  0  0  0  0
 28 52  1  0  0  0  0
M  END
>  <energy>
180.38783721067267

$$$$
