COC(O)C1=NC2=NC(=NC(=N)NN2)N1Cc1nc(=O)[nH]c(=O)[nH]1
                    3D

 36 38  0  0  0  0  0  0  0  0999 V2000
   -1.7319   -3.7042   -1.4273 C   0  0  0  0  0  0  0  0  0  0  0  0
   -1.3188   -3.5709   -0.0762 O   0  0  0  0  0  0  0  0  0  0  0  0
   -0.3780   -2.5329    0.1084 C   0  0  0  0  0  0  0  0  0  0  0  0
    0.0994   -2.6333    1.4408 O   0  0  0  0  0  0  0  0  0  0  0  0
   -0.9697   -1.1069   -0.0523 C   0  0  0  0  0  0  0  0  0  0  0  0
   -1.9460   -0.7528    0.7762 N   0  0  0  0  0  0  0  0  0  0  0  0
   -2.4560    0.5067    0.5283 C   0  0  0  0  0  0  0  0  0  0  0  0
   -2.4696    0.8990   -0.7072 N   0  0  0  0  0  0  0  0  0  0  0  0
   -1.1347    1.0214   -0.9284 C   0  0  0  0  0  0  0  0  0  0  0  0
   -0.5455    2.1515   -0.6887 N   0  0  0  0  0  0  0  0  0  0  0  0
   -1.3250    3.0886   -0.0384 C   0  0  0  0  0  0  0  0  0  0  0  0
   -1.1995    4.2766   -0.5212 N   0  0  0  0  0  0  0  0  0  0  0  0
   -2.1171    2.8124    1.0894 N   0  0  0  0  0  0  0  0  0  0  0  0
   -2.5198    1.4961    1.4899 N   0  0  0  0  0  0  0  0  0  0  0  0
   -0.4856   -0.1890   -1.0098 N   0  0  0  0  0  0  0  0  0  0  0  0
    0.8492   -0.2405   -1.5951 C   0  0  0  0  0  0  0  0  0  0  0  0
    1.9279    0.0360   -0.5605 C   0  0  0  0  0  0  0  0  0  0  0  0
    2.7399   -0.9027   -0.2131 N   0  0  0  0  0  0  0  0  0  0  0  0
    3.7099   -0.6296    0.7124 C   0  0  0  0  0  0  0  0  0  0  0  0
    4.5009   -1.4798    1.1064 O   0  0  0  0  0  0  0  0  0  0  0  0
    3.7901    0.6364    1.2070 N   0  0  0  0  0  0  0  0  0  0  0  0
    2.8897    1.6044    0.9201 C   0  0  0  0  0  0  0  0  0  0  0  0
    2.8661    2.6734    1.5191 O   0  0  0  0  0  0  0  0  0  0  0  0
    1.9967    1.2944   -0.0509 N   0  0  0  0  0  0  0  0  0  0  0  0
   -2.2912   -2.8218   -1.7505 H   0  0  0  0  0  0  0  0  0  0  0  0
   -2.3915   -4.5734   -1.5000 H   0  0  0  0  0  0  0  0  0  0  0  0
   -0.8717   -3.8665   -2.0834 H   0  0  0  0  0  0  0  0  0  0  0  0
    0.4749   -2.6890   -0.5538 H   0  0  0  0  0  0  0  0  0  0  0  0
   -0.7101   -2.5462    1.9764 H   0  0  0  0  0  0  0  0  0  0  0  0
   -1.7593    4.9369    0.0159 H   0  0  0  0  0  0  0  0  0  0  0  0
   -2.8176    3.5233    1.2804 H   0  0  0  0  0  0  0  0  0  0  0  0
   -2.1200    1.1923    2.3751 H   0  0  0  0  0  0  0  0  0  0  0  0
    0.9420    0.5053   -2.3958 H   0  0  0  0  0  0  0  0  0  0  0  0
    1.0258   -1.2143   -2.0647 H   0  0  0  0  0  0  0  0  0  0  0  0
    4.4615    0.8043    1.9379 H   0  0  0  0  0  0  0  0  0  0  0  0
    1.2843    1.9947   -0.2661 H   0  0  0  0  0  0  0  0  0  0  0  0
  2  1  1  0  0  0  0
  3  2  1  0  0  0  0
  4  3  1  0  0  0  0
  5  3  1  0  0  0  0
  6  5  2  0  0  0  0
  7  6  1  0  0  0  0
  8  7  2  0  0  0  0
  9  8  1  0  0  0  0
 10  9  2  0  0  0  0
 11 10  1  0  0  0  0
 12 11  2  0  0  0  0
 13 11  1  0  0  0  0
 14 13  1  0  0  0  0
 14  7  1  0  0  0  0
 15  9  1  0  0  0  0
 15  5  1  0  0  0  0
 16 15  1  0  0  0  0
 17 16  1  0  0  0  0
 18 17  2  0  0  0  0
 19 18  1  0  0  0  0
 20 19  2  0  0  0  0
 21 19  1  0  0  0  0
 22 21  1  0  0  0  0
 23 22  2  0  0  0  0
 24 22  1  0  0  0  0
 24 17  1  0  0  0  0
  1 25  1  0  0  0  0
  1 26  1  0  0  0  0
  1 27  1  0  0  0  0
  3 28  1  0  0  0  0
  4 29  1  0  0  0  0
 12 30  1  0  0  0  0
 13 31  1  0  0  0  0
 14 32  1  0  0  0  0
 16 33  1  0  0  0  0
 16 34  1  0  0  0  0
 21 35  1  0  0  0  0
 24 36  1  0  0  0  0
M  END
>  <energy>
-281.05137066224518

$$$$
