COC(=O)C1CCC(O)C2(C)C(O)C(OC)C3COC3C3C(C)(C)CCC(OC(C)=O)C132
                    3D

 70 73  0  0  0  0  0  0  0  0999 V2000
    0.8324    4.6714    0.0447 C   0  0  0  0  0  0  0  0  0  0  0  0
    0.1411    3.4384    0.2315 O   0  0  0  0  0  0  0  0  0  0  0  0
    0.3045    2.5327   -0.7759 C   0  0  0  0  0  0  0  0  0  0  0  0
    1.0777    2.6664   -1.7136 O   0  0  0  0  0  0  0  0  0  0  0  0
   -0.6973    1.3936   -0.6182 C   0  0  0  0  0  0  0  0  0  0  0  0
   -1.6806    1.5782   -1.7898 C   0  0  0  0  0  0  0  0  0  0  0  0
   -2.9394    0.7443   -1.6837 C   0  0  0  0  0  0  0  0  0  0  0  0
   -2.7164   -0.7051   -1.2547 C   0  0  0  0  0  0  0  0  0  0  0  0
   -2.7474   -1.5805   -2.3823 O   0  0  0  0  0  0  0  0  0  0  0  0
   -1.5170   -0.9937   -0.2133 C   0  0  0  0  0  0  0  0  0  0  0  0
   -1.2155   -2.5189   -0.3434 C   0  0  0  0  0  0  0  0  0  0  0  0
   -2.2474   -0.7374    1.1984 C   0  0  0  0  0  0  0  0  0  0  0  0
   -3.0238    0.4758    1.1738 O   0  0  0  0  0  0  0  0  0  0  0  0
   -1.4956   -0.6759    2.5360 C   0  0  0  0  0  0  0  0  0  0  0  0
   -2.4770   -1.0005    3.5503 O   0  0  0  0  0  0  0  0  0  0  0  0
   -2.6135   -0.0227    4.5730 C   0  0  0  0  0  0  0  0  0  0  0  0
   -0.4285   -1.7255    2.5690 C   0  0  0  0  0  0  0  0  0  0  0  0
    0.5004   -1.7101    3.7767 C   0  0  0  0  0  0  0  0  0  0  0  0
    1.4760   -0.9578    3.0317 O   0  0  0  0  0  0  0  0  0  0  0  0
    0.8319   -1.3252    1.7594 C   0  0  0  0  0  0  0  0  0  0  0  0
    0.9711   -0.1226    0.7778 C   0  0  0  0  0  0  0  0  0  0  0  0
    2.5712    0.0437    0.4191 C   0  0  0  0  0  0  0  0  0  0  0  0
    3.5555   -0.9188    1.1697 C   0  0  0  0  0  0  0  0  0  0  0  0
    3.0706    1.4526    0.8318 C   0  0  0  0  0  0  0  0  0  0  0  0
    2.8854   -0.2001   -1.0648 C   0  0  0  0  0  0  0  0  0  0  0  0
    1.9140   -1.2032   -1.6560 C   0  0  0  0  0  0  0  0  0  0  0  0
    0.6059   -0.4508   -1.8498 C   0  0  0  0  0  0  0  0  0  0  0  0
   -0.2112   -1.1360   -2.8092 O   0  0  0  0  0  0  0  0  0  0  0  0
   -0.2090   -0.7814   -4.1206 C   0  0  0  0  0  0  0  0  0  0  0  0
    1.1190   -0.5285   -4.7682 C   0  0  0  0  0  0  0  0  0  0  0  0
   -1.2632   -0.7488   -4.7490 O   0  0  0  0  0  0  0  0  0  0  0  0
   -0.1394   -0.0993   -0.4733 C   0  0  0  0  0  0  0  0  0  0  0  0
    0.6123    5.0970   -0.9405 H   0  0  0  0  0  0  0  0  0  0  0  0
    0.4749    5.3723    0.8036 H   0  0  0  0  0  0  0  0  0  0  0  0
    1.9096    4.5357    0.1763 H   0  0  0  0  0  0  0  0  0  0  0  0
   -1.2295    1.6240    0.3089 H   0  0  0  0  0  0  0  0  0  0  0  0
   -1.1874    1.3798   -2.7455 H   0  0  0  0  0  0  0  0  0  0  0  0
   -1.9800    2.6333   -1.8534 H   0  0  0  0  0  0  0  0  0  0  0  0
   -3.5999    1.2386   -0.9611 H   0  0  0  0  0  0  0  0  0  0  0  0
   -3.4838    0.7892   -2.6357 H   0  0  0  0  0  0  0  0  0  0  0  0
   -3.6486   -0.9965   -0.7526 H   0  0  0  0  0  0  0  0  0  0  0  0
   -2.4186   -1.1218   -3.1788 H   0  0  0  0  0  0  0  0  0  0  0  0
   -2.1163   -3.1072   -0.1286 H   0  0  0  0  0  0  0  0  0  0  0  0
   -0.4365   -2.8907    0.3140 H   0  0  0  0  0  0  0  0  0  0  0  0
   -0.8933   -2.8105   -1.3454 H   0  0  0  0  0  0  0  0  0  0  0  0
   -2.9992   -1.5324    1.2939 H   0  0  0  0  0  0  0  0  0  0  0  0
   -3.6154    0.4343    1.9473 H   0  0  0  0  0  0  0  0  0  0  0  0
   -1.0948    0.3280    2.7180 H   0  0  0  0  0  0  0  0  0  0  0  0
   -3.4391   -0.3338    5.2171 H   0  0  0  0  0  0  0  0  0  0  0  0
   -2.8613    0.9556    4.1550 H   0  0  0  0  0  0  0  0  0  0  0  0
   -1.7061    0.0395    5.1777 H   0  0  0  0  0  0  0  0  0  0  0  0
   -0.8105   -2.7355    2.3926 H   0  0  0  0  0  0  0  0  0  0  0  0
    0.1635   -1.1805    4.6707 H   0  0  0  0  0  0  0  0  0  0  0  0
    0.8999   -2.6866    4.0671 H   0  0  0  0  0  0  0  0  0  0  0  0
    1.3076   -2.2226    1.3416 H   0  0  0  0  0  0  0  0  0  0  0  0
    0.7166    0.7639    1.3751 H   0  0  0  0  0  0  0  0  0  0  0  0
    3.3379   -1.9720    0.9700 H   0  0  0  0  0  0  0  0  0  0  0  0
    4.5900   -0.7594    0.8337 H   0  0  0  0  0  0  0  0  0  0  0  0
    3.5862   -0.7472    2.2476 H   0  0  0  0  0  0  0  0  0  0  0  0
    2.6022    2.2461    0.2556 H   0  0  0  0  0  0  0  0  0  0  0  0
    4.1525    1.5575    0.6740 H   0  0  0  0  0  0  0  0  0  0  0  0
    2.8774    1.6462    1.8946 H   0  0  0  0  0  0  0  0  0  0  0  0
    2.8544    0.7405   -1.6300 H   0  0  0  0  0  0  0  0  0  0  0  0
    3.9101   -0.5649   -1.2087 H   0  0  0  0  0  0  0  0  0  0  0  0
    2.3101   -1.5739   -2.6069 H   0  0  0  0  0  0  0  0  0  0  0  0
    1.7913   -2.0942   -1.0305 H   0  0  0  0  0  0  0  0  0  0  0  0
    0.8678    0.4916   -2.3258 H   0  0  0  0  0  0  0  0  0  0  0  0
    1.6852    0.2538   -4.2615 H   0  0  0  0  0  0  0  0  0  0  0  0
    1.6841   -1.4643   -4.8110 H   0  0  0  0  0  0  0  0  0  0  0  0
    0.9523   -0.1870   -5.7956 H   0  0  0  0  0  0  0  0  0  0  0  0
  2  1  1  0  0  0  0
  3  2  1  0  0  0  0
  4  3  2  0  0  0  0
  5  3  1  0  0  0  0
  6  5  1  0  0  0  0
  7  6  1  0  0  0  0
  8  7  1  0  0  0  0
  9  8  1  0  0  0  0
 10  8  1  0  0  0  0
 11 10  1  0  0  0  0
 12 10  1  0  0  0  0
 13 12  1  0  0  0  0
 14 12  1  0  0  0  0
 15 14  1  0  0  0  0
 16 15  1  0  0  0  0
 17 14  1  0  0  0  0
 18 17  1  0  0  0  0
 19 18  1  0  0  0  0
 20 19  1  0  0  0  0
 20 17  1  0  0  0  0
 21 20  1  0  0  0  0
 22 21  1  0  0  0  0
 23 22  1  0  0  0  0
 24 22  1  0  0  0  0
 25 22  1  0  0  0  0
 26 25  1  0  0  0  0
 27 26  1  0  0  0  0
 28 27  1  0  0  0  0
 29 28  1  0  0  0  0
 30 29  1  0  0  0  0
 31 29  2  0  0  0  0
 32 27  1  0  0  0  0
 32  5  1  0  0  0  0
 32 21  1  0  0  0  0
 32 10  1  0  0  0  0
  1 33  1  0  0  0  0
  1 34  1  0  0  0  0
  1 35  1  0  0  0  0
  5 36  1  0  0  0  0
  6 37  1  0  0  0  0
  6 38  1  0  0  0  0
  7 39  1  0  0  0  0
  7 40  1  0  0  0  0
  8 41  1  0  0  0  0
  9 42  1  0  0  0  0
 11 43  1  0  0  0  0
 11 44  1  0  0  0  0
 11 45  1  0  0  0  0
 12 46  1  0  0  0  0
 13 47  1  0  0  0  0
 14 48  1  0  0  0  0
 16 49  1  0  0  0  0
 16 50  1  0  0  0  0
 16 51  1  0  0  0  0
 17 52  1  0  0  0  0
 18 53  1  0  0  0  0
 18 54  1  0  0  0  0
 20 55  1  0  0  0  0
 21 56  1  0  0  0  0
 23 57  1  0  0  0  0
 23 58  1  0  0  0  0
 23 59  1  0  0  0  0
 24 60  1  0  0  0  0
 24 61  1  0  0  0  0
 24 62  1  0  0  0  0
 25 63  1  0  0  0  0
 25 64  1  0  0  0  0
 26 65  1  0  0  0  0
 26 66  1  0  0  0  0
 27 67  1  0  0  0  0
 30 68  1  0  0  0  0
 30 69  1  0  0  0  0
 30 70  1  0  0  0  0
M  END
>  <energy>
155.49241613488141

$$$$
