C=C(C)C(O)C1CC23OOC4(C1O2)C(OC(C)(C)C)C1C2OC(C)(C)OC2C(C)C13C4O
                    3D

 68 73  0  0  0  0  0  0  0  0999 V2000
    1.9728   -2.6786   -1.8768 C   0  0  0  0  0  0  0  0  0  0  0  0
    2.7027   -1.5918   -1.5652 C   0  0  0  0  0  0  0  0  0  0  0  0
    2.9337   -0.5253   -2.6079 C   0  0  0  0  0  0  0  0  0  0  0  0
    3.4509   -1.4842   -0.2590 C   0  0  0  0  0  0  0  0  0  0  0  0
    4.7096   -0.8777   -0.5915 O   0  0  0  0  0  0  0  0  0  0  0  0
    2.9046   -0.7777    0.9991 C   0  0  0  0  0  0  0  0  0  0  0  0
    2.0661   -1.5575    2.1081 C   0  0  0  0  0  0  0  0  0  0  0  0
    1.1430   -0.4383    2.6181 C   0  0  0  0  0  0  0  0  0  0  0  0
    0.8615    0.6274    3.5092 O   0  0  0  0  0  0  0  0  0  0  0  0
    0.9203    2.0073    2.4779 O   0  0  0  0  0  0  0  0  0  0  0  0
    0.9200    1.4931    1.1004 C   0  0  0  0  0  0  0  0  0  0  0  0
    2.3809    0.6829    1.1233 C   0  0  0  0  0  0  0  0  0  0  0  0
    2.3723    0.3819    2.4867 O   0  0  0  0  0  0  0  0  0  0  0  0
    0.4632    0.9098   -0.2873 C   0  0  0  0  0  0  0  0  0  0  0  0
   -0.5391    1.6417   -0.9801 O   0  0  0  0  0  0  0  0  0  0  0  0
   -0.2178    2.8545   -1.6675 C   0  0  0  0  0  0  0  0  0  0  0  0
    0.5460    3.8571   -0.7994 C   0  0  0  0  0  0  0  0  0  0  0  0
   -1.5790    3.4612   -2.0423 C   0  0  0  0  0  0  0  0  0  0  0  0
    0.5493    2.5501   -2.9585 C   0  0  0  0  0  0  0  0  0  0  0  0
   -0.0017   -0.5449    0.1037 C   0  0  0  0  0  0  0  0  0  0  0  0
   -1.3085   -1.1400   -0.4258 C   0  0  0  0  0  0  0  0  0  0  0  0
   -2.4090   -0.2583   -0.5626 O   0  0  0  0  0  0  0  0  0  0  0  0
   -3.5644   -1.0119   -0.1827 C   0  0  0  0  0  0  0  0  0  0  0  0
   -4.2935   -1.4825   -1.4374 C   0  0  0  0  0  0  0  0  0  0  0  0
   -4.4726   -0.1245    0.6582 C   0  0  0  0  0  0  0  0  0  0  0  0
   -3.1601   -2.1655    0.5713 O   0  0  0  0  0  0  0  0  0  0  0  0
   -1.7431   -2.0831    0.6810 C   0  0  0  0  0  0  0  0  0  0  0  0
   -1.3134   -1.4324    2.0197 C   0  0  0  0  0  0  0  0  0  0  0  0
   -0.9774   -2.5032    3.0573 C   0  0  0  0  0  0  0  0  0  0  0  0
   -0.1710   -0.4576    1.6444 C   0  0  0  0  0  0  0  0  0  0  0  0
   -0.5978    0.9717    1.6056 C   0  0  0  0  0  0  0  0  0  0  0  0
   -1.2455    1.4192    2.8129 O   0  0  0  0  0  0  0  0  0  0  0  0
    1.8542   -3.5098   -1.1873 H   0  0  0  0  0  0  0  0  0  0  0  0
    1.4944   -2.7741   -2.8485 H   0  0  0  0  0  0  0  0  0  0  0  0
    3.0312    0.4661   -2.1580 H   0  0  0  0  0  0  0  0  0  0  0  0
    2.1128   -0.4868   -3.3308 H   0  0  0  0  0  0  0  0  0  0  0  0
    3.8593   -0.7294   -3.1570 H   0  0  0  0  0  0  0  0  0  0  0  0
    3.6987   -2.5088    0.0526 H   0  0  0  0  0  0  0  0  0  0  0  0
    5.3517   -1.1441    0.0924 H   0  0  0  0  0  0  0  0  0  0  0  0
    3.8781   -0.7047    1.5355 H   0  0  0  0  0  0  0  0  0  0  0  0
    2.7279   -1.9374    2.8990 H   0  0  0  0  0  0  0  0  0  0  0  0
    1.5454   -2.4134    1.6731 H   0  0  0  0  0  0  0  0  0  0  0  0
    3.1763    1.4048    0.9079 H   0  0  0  0  0  0  0  0  0  0  0  0
    1.3026    0.8314   -0.9744 H   0  0  0  0  0  0  0  0  0  0  0  0
    1.5575    3.5030   -0.5775 H   0  0  0  0  0  0  0  0  0  0  0  0
    0.6403    4.8260   -1.3004 H   0  0  0  0  0  0  0  0  0  0  0  0
    0.0387    4.0118    0.1585 H   0  0  0  0  0  0  0  0  0  0  0  0
   -2.1692    2.7580   -2.6419 H   0  0  0  0  0  0  0  0  0  0  0  0
   -1.4678    4.3914   -2.6105 H   0  0  0  0  0  0  0  0  0  0  0  0
   -2.1701    3.6717   -1.1428 H   0  0  0  0  0  0  0  0  0  0  0  0
    0.6032    3.4297   -3.6090 H   0  0  0  0  0  0  0  0  0  0  0  0
    1.5752    2.2362   -2.7484 H   0  0  0  0  0  0  0  0  0  0  0  0
    0.0724    1.7356   -3.5152 H   0  0  0  0  0  0  0  0  0  0  0  0
    0.7561   -1.2840   -0.1015 H   0  0  0  0  0  0  0  0  0  0  0  0
   -1.1651   -1.6566   -1.3805 H   0  0  0  0  0  0  0  0  0  0  0  0
   -3.6497   -2.1306   -2.0432 H   0  0  0  0  0  0  0  0  0  0  0  0
   -5.1881   -2.0608   -1.1817 H   0  0  0  0  0  0  0  0  0  0  0  0
   -4.5834   -0.6347   -2.0690 H   0  0  0  0  0  0  0  0  0  0  0  0
   -5.3355   -0.6831    1.0359 H   0  0  0  0  0  0  0  0  0  0  0  0
   -4.8273    0.7388    0.0827 H   0  0  0  0  0  0  0  0  0  0  0  0
   -3.9362    0.2753    1.5250 H   0  0  0  0  0  0  0  0  0  0  0  0
   -1.3027   -3.0787    0.5612 H   0  0  0  0  0  0  0  0  0  0  0  0
   -2.1581   -0.8735    2.4424 H   0  0  0  0  0  0  0  0  0  0  0  0
   -0.6339   -2.0520    3.9938 H   0  0  0  0  0  0  0  0  0  0  0  0
   -1.8680   -3.1010    3.2853 H   0  0  0  0  0  0  0  0  0  0  0  0
   -0.2100   -3.1951    2.7026 H   0  0  0  0  0  0  0  0  0  0  0  0
   -1.3997    1.2238    0.9148 H   0  0  0  0  0  0  0  0  0  0  0  0
   -0.5144    1.7320    3.3820 H   0  0  0  0  0  0  0  0  0  0  0  0
  2  1  2  0  0  0  0
  3  2  1  0  0  0  0
  4  2  1  0  0  0  0
  5  4  1  0  0  0  0
  6  4  1  0  0  0  0
  7  6  1  0  0  0  0
  8  7  1  0  0  0  0
  9  8  1  0  0  0  0
 10  9  1  0  0  0  0
 11 10  1  0  0  0  0
 12 11  1  0  0  0  0
 12  6  1  0  0  0  0
 13 12  1  0  0  0  0
 13  8  1  0  0  0  0
 14 11  1  0  0  0  0
 15 14  1  0  0  0  0
 16 15  1  0  0  0  0
 17 16  1  0  0  0  0
 18 16  1  0  0  0  0
 19 16  1  0  0  0  0
 20 14  1  0  0  0  0
 21 20  1  0  0  0  0
 22 21  1  0  0  0  0
 23 22  1  0  0  0  0
 24 23  1  0  0  0  0
 25 23  1  0  0  0  0
 26 23  1  0  0  0  0
 27 26  1  0  0  0  0
 27 21  1  0  0  0  0
 28 27  1  0  0  0  0
 29 28  1  0  0  0  0
 30 28  1  0  0  0  0
 30 20  1  0  0  0  0
 30  8  1  0  0  0  0
 31 30  1  0  0  0  0
 31 11  1  0  0  0  0
 32 31  1  0  0  0  0
  1 33  1  0  0  0  0
  1 34  1  0  0  0  0
  3 35  1  0  0  0  0
  3 36  1  0  0  0  0
  3 37  1  0  0  0  0
  4 38  1  0  0  0  0
  5 39  1  0  0  0  0
  6 40  1  0  0  0  0
  7 41  1  0  0  0  0
  7 42  1  0  0  0  0
 12 43  1  0  0  0  0
 14 44  1  0  0  0  0
 17 45  1  0  0  0  0
 17 46  1  0  0  0  0
 17 47  1  0  0  0  0
 18 48  1  0  0  0  0
 18 49  1  0  0  0  0
 18 50  1  0  0  0  0
 19 51  1  0  0  0  0
 19 52  1  0  0  0  0
 19 53  1  0  0  0  0
 20 54  1  0  0  0  0
 21 55  1  0  0  0  0
 24 56  1  0  0  0  0
 24 57  1  0  0  0  0
 24 58  1  0  0  0  0
 25 59  1  0  0  0  0
 25 60  1  0  0  0  0
 25 61  1  0  0  0  0
 27 62  1  0  0  0  0
 28 63  1  0  0  0  0
 29 64  1  0  0  0  0
 29 65  1  0  0  0  0
 29 66  1  0  0  0  0
 31 67  1  0  0  0  0
 32 68  1  0  0  0  0
M  END
>  <energy>
483.95759719679222

$$$$
