C[N+](=O)c1c[nH]c(=CCl)c1=Cc1[nH]c2c(c1CO)Nc1c[n+](CCl)c-2[nH]1
                    3D

 42 45  0  0  0  0  0  0  0  0999 V2000
   -5.6297   -1.2706   -1.0910 C   0  0  0  0  0  0  0  0  0  0  0  0
   -4.3212   -0.7808   -1.5280 N   0  3  0  0  0  0  0  0  0  0  0  0
   -3.7562   -1.2778   -2.4867 O   0  0  0  0  0  0  0  0  0  0  0  0
   -3.6464    0.2567   -0.8141 C   0  0  0  0  0  0  0  0  0  0  0  0
   -4.1653    1.4857   -0.6944 C   0  0  0  0  0  0  0  0  0  0  0  0
   -3.2759    2.3117   -0.0429 N   0  0  0  0  0  0  0  0  0  0  0  0
   -2.1596    1.6004    0.4187 C   0  0  0  0  0  0  0  0  0  0  0  0
   -1.3271    2.1004    1.3383 C   0  0  0  0  0  0  0  0  0  0  0  0
   -0.1064    1.3115    2.2256 Cl  0  0  0  0  0  0  0  0  0  0  0  0
   -2.2975    0.2590   -0.2127 C   0  0  0  0  0  0  0  0  0  0  0  0
   -1.4448   -0.7638   -0.4153 C   0  0  0  0  0  0  0  0  0  0  0  0
   -0.0528   -0.7661   -0.1721 C   0  0  0  0  0  0  0  0  0  0  0  0
    0.7311    0.0417   -0.9858 N   0  0  0  0  0  0  0  0  0  0  0  0
    2.0276   -0.2208   -0.7031 C   0  0  0  0  0  0  0  0  0  0  0  0
    2.0897   -1.1668    0.2955 C   0  0  0  0  0  0  0  0  0  0  0  0
    0.7795   -1.5253    0.6540 C   0  0  0  0  0  0  0  0  0  0  0  0
    0.3931   -2.5372    1.6758 C   0  0  0  0  0  0  0  0  0  0  0  0
    1.2707   -2.4910    2.8055 O   0  0  0  0  0  0  0  0  0  0  0  0
    3.3181   -1.5791    0.7558 N   0  0  0  0  0  0  0  0  0  0  0  0
    4.4278   -0.9090    0.1871 C   0  0  0  0  0  0  0  0  0  0  0  0
    4.8576    0.3776    0.4437 C   0  0  0  0  0  0  0  0  0  0  0  0
    4.1832    1.1457   -0.5762 N   0  3  0  0  0  0  0  0  0  0  0  0
    4.0153    2.5786   -0.6227 C   0  0  0  0  0  0  0  0  0  0  0  0
    2.7862    3.0505    0.5466 Cl  0  0  0  0  0  0  0  0  0  0  0  0
    3.3821    0.2068   -1.1807 C   0  0  0  0  0  0  0  0  0  0  0  0
    4.3346   -0.7709   -1.2208 N   0  0  0  0  0  0  0  0  0  0  0  0
   -6.0342   -0.6312   -0.3013 H   0  0  0  0  0  0  0  0  0  0  0  0
   -5.4866   -2.2866   -0.7122 H   0  0  0  0  0  0  0  0  0  0  0  0
   -6.3070   -1.2727   -1.9495 H   0  0  0  0  0  0  0  0  0  0  0  0
   -5.1223    1.8670   -1.0281 H   0  0  0  0  0  0  0  0  0  0  0  0
   -3.6065    3.1331    0.4520 H   0  0  0  0  0  0  0  0  0  0  0  0
   -1.4288    3.1217    1.6853 H   0  0  0  0  0  0  0  0  0  0  0  0
   -1.8088   -1.6573   -0.9264 H   0  0  0  0  0  0  0  0  0  0  0  0
    0.3728    0.6527   -1.7069 H   0  0  0  0  0  0  0  0  0  0  0  0
   -0.6338   -2.3936    2.0243 H   0  0  0  0  0  0  0  0  0  0  0  0
    0.4621   -3.5377    1.2368 H   0  0  0  0  0  0  0  0  0  0  0  0
    0.8917   -1.8269    3.4114 H   0  0  0  0  0  0  0  0  0  0  0  0
    3.3294   -1.9907    1.6937 H   0  0  0  0  0  0  0  0  0  0  0  0
    5.1442    0.9143    1.3318 H   0  0  0  0  0  0  0  0  0  0  0  0
    3.7017    2.8810   -1.6245 H   0  0  0  0  0  0  0  0  0  0  0  0
    4.9635    3.0607   -0.3645 H   0  0  0  0  0  0  0  0  0  0  0  0
    5.1487   -0.7008   -1.8219 H   0  0  0  0  0  0  0  0  0  0  0  0
  2  1  1  0  0  0  0
  3  2  2  0  0  0  0
  4  2  1  0  0  0  0
  5  4  2  0  0  0  0
  6  5  1  0  0  0  0
  7  6  1  0  0  0  0
  8  7  2  0  0  0  0
  9  8  1  0  0  0  0
 10  7  1  0  0  0  0
 10  4  1  0  0  0  0
 11 10  2  0  0  0  0
 12 11  1  0  0  0  0
 13 12  1  0  0  0  0
 14 13  1  0  0  0  0
 15 14  2  0  0  0  0
 16 15  1  0  0  0  0
 16 12  2  0  0  0  0
 17 16  1  0  0  0  0
 18 17  1  0  0  0  0
 19 15  1  0  0  0  0
 20 19  1  0  0  0  0
 21 20  2  0  0  0  0
 22 21  1  0  0  0  0
 23 22  1  0  0  0  0
 24 23  1  0  0  0  0
 25 22  2  0  0  0  0
 25 14  1  0  0  0  0
 26 25  1  0  0  0  0
 26 20  1  0  0  0  0
  1 27  1  0  0  0  0
  1 28  1  0  0  0  0
  1 29  1  0  0  0  0
  5 30  1  0  0  0  0
  6 31  1  0  0  0  0
  8 32  1  0  0  0  0
 11 33  1  0  0  0  0
 13 34  1  0  0  0  0
 17 35  1  0  0  0  0
 17 36  1  0  0  0  0
 18 37  1  0  0  0  0
 19 38  1  0  0  0  0
 21 39  1  0  0  0  0
 23 40  1  0  0  0  0
 23 41  1  0  0  0  0
 26 42  1  0  0  0  0
M  CHG  2   2   1  22   1
M  END
>  <energy>
123.86251213672712

$$$$
