OC1C2CCC3C1C(F)C23
                    3D

 21 23  0  0  0  0  0  0  0  0999 V2000
    1.8004    1.7877    0.3514 O   0  0  0  0  0  0  0  0  0  0  0  0
    0.6255    1.1810   -0.1574 C   0  0  0  0  0  0  0  0  0  0  0  0
   -0.2354    0.5871    0.9707 C   0  0  0  0  0  0  0  0  0  0  0  0
   -1.7050    0.5570    0.5493 C   0  0  0  0  0  0  0  0  0  0  0  0
   -1.6927   -0.3274   -0.7007 C   0  0  0  0  0  0  0  0  0  0  0  0
   -0.3321   -1.0186   -0.6409 C   0  0  0  0  0  0  0  0  0  0  0  0
    0.9553   -0.1254   -0.8683 C   0  0  0  0  0  0  0  0  0  0  0  0
    1.5875   -1.0427    0.2300 C   0  0  0  0  0  0  0  0  0  0  0  0
    1.9458   -2.2878   -0.1680 F   0  0  0  0  0  0  0  0  0  0  0  0
    0.1604   -0.8951    0.8306 C   0  0  0  0  0  0  0  0  0  0  0  0
    2.2897    2.1562   -0.4051 H   0  0  0  0  0  0  0  0  0  0  0  0
    0.0881    1.9041   -0.7792 H   0  0  0  0  0  0  0  0  0  0  0  0
   -0.0530    1.0120    1.9602 H   0  0  0  0  0  0  0  0  0  0  0  0
   -2.3146    0.0892    1.3315 H   0  0  0  0  0  0  0  0  0  0  0  0
   -2.1134    1.5513    0.3455 H   0  0  0  0  0  0  0  0  0  0  0  0
   -1.7964    0.2601   -1.6188 H   0  0  0  0  0  0  0  0  0  0  0  0
   -2.5133   -1.0511   -0.6631 H   0  0  0  0  0  0  0  0  0  0  0  0
   -0.3011   -2.0121   -1.1015 H   0  0  0  0  0  0  0  0  0  0  0  0
    1.4186   -0.1074   -1.8536 H   0  0  0  0  0  0  0  0  0  0  0  0
    2.3817   -0.5903    0.8330 H   0  0  0  0  0  0  0  0  0  0  0  0
   -0.1958   -1.6277    1.5544 H   0  0  0  0  0  0  0  0  0  0  0  0
  2  1  1  0  0  0  0
  3  2  1  0  0  0  0
  4  3  1  0  0  0  0
  5  4  1  0  0  0  0
  6  5  1  0  0  0  0
  7  6  1  0  0  0  0
  7  2  1  0  0  0  0
  8  7  1  0  0  0  0
  9  8  1  0  0  0  0
 10  8  1  0  0  0  0
 10  3  1  0  0  0  0
 10  6  1  0  0  0  0
  1 11  1  0  0  0  0
  2 12  1  0  0  0  0
  3 13  1  0  0  0  0
  4 14  1  0  0  0  0
  4 15  1  0  0  0  0
  5 16  1  0  0  0  0
  5 17  1  0  0  0  0
  6 18  1  0  0  0  0
  7 19  1  0  0  0  0
  8 20  1  0  0  0  0
 10 21  1  0  0  0  0
M  END
>  <energy>
37.688920041724963

$$$$
