CCNN=C(NN=C(CO)C(=O)O)C1=CC(=O)C2=NN(N)C(Cn3[nH]c(=N)[nH]c3=N)NC(=C2O)C(=O)N1N
                    3D

 63 65  0  0  0  0  0  0  0  0999 V2000
   -5.8694   -1.3185   -0.3135 C   0  0  0  0  0  0  0  0  0  0  0  0
   -6.2345    0.0924    0.1164 C   0  0  0  0  0  0  0  0  0  0  0  0
   -5.1887    0.7078    0.9338 N   0  0  0  0  0  0  0  0  0  0  0  0
   -4.1317    1.2011    0.2452 N   0  0  0  0  0  0  0  0  0  0  0  0
   -2.9851    1.2602    0.8847 C   0  0  0  0  0  0  0  0  0  0  0  0
   -2.8563    0.9075    2.2438 N   0  0  0  0  0  0  0  0  0  0  0  0
   -3.1805   -0.3769    2.6591 N   0  0  0  0  0  0  0  0  0  0  0  0
   -2.1850   -1.1967    2.8573 C   0  0  0  0  0  0  0  0  0  0  0  0
   -0.7095   -0.8870    2.6819 C   0  0  0  0  0  0  0  0  0  0  0  0
    0.1810   -1.9458    2.9725 O   0  0  0  0  0  0  0  0  0  0  0  0
   -2.5278   -2.5817    3.3644 C   0  0  0  0  0  0  0  0  0  0  0  0
   -2.3868   -2.9073    4.5273 O   0  0  0  0  0  0  0  0  0  0  0  0
   -3.0239   -3.3790    2.4128 O   0  0  0  0  0  0  0  0  0  0  0  0
   -1.7862    1.8162    0.1043 C   0  0  0  0  0  0  0  0  0  0  0  0
   -1.8827    1.5747   -1.2163 C   0  0  0  0  0  0  0  0  0  0  0  0
   -0.9834    2.0587   -2.2694 C   0  0  0  0  0  0  0  0  0  0  0  0
   -1.2829    2.8802   -3.1156 O   0  0  0  0  0  0  0  0  0  0  0  0
    0.3740    1.4400   -2.2246 C   0  0  0  0  0  0  0  0  0  0  0  0
    0.4668    0.1895   -2.5672 N   0  0  0  0  0  0  0  0  0  0  0  0
    1.6055   -0.4708   -2.1926 N   0  0  0  0  0  0  0  0  0  0  0  0
    1.4946   -1.7852   -2.7400 N   0  0  0  0  0  0  0  0  0  0  0  0
    1.9350   -0.5486   -0.7029 C   0  0  0  0  0  0  0  0  0  0  0  0
    3.1768   -1.4385   -0.3806 C   0  0  0  0  0  0  0  0  0  0  0  0
    4.3829   -0.9024   -1.0057 N   0  0  0  0  0  0  0  0  0  0  0  0
    5.3841   -0.2898   -0.2364 N   0  0  0  0  0  0  0  0  0  0  0  0
    6.5407   -0.2303   -1.0034 C   0  0  0  0  0  0  0  0  0  0  0  0
    7.6301    0.4086   -0.7970 N   0  0  0  0  0  0  0  0  0  0  0  0
    6.2548   -1.0021   -2.1002 N   0  0  0  0  0  0  0  0  0  0  0  0
    4.9614   -1.4593   -2.1466 C   0  0  0  0  0  0  0  0  0  0  0  0
    4.4234   -2.2360   -3.0168 N   0  0  0  0  0  0  0  0  0  0  0  0
    2.1307    0.7578    0.0541 N   0  0  0  0  0  0  0  0  0  0  0  0
    1.2496    1.7780   -0.3455 C   0  0  0  0  0  0  0  0  0  0  0  0
    1.3651    2.3440   -1.5594 C   0  0  0  0  0  0  0  0  0  0  0  0
    2.6173    2.3693   -2.1795 O   0  0  0  0  0  0  0  0  0  0  0  0
    0.5712    2.6584    0.6540 C   0  0  0  0  0  0  0  0  0  0  0  0
    1.2907    3.3880    1.3450 O   0  0  0  0  0  0  0  0  0  0  0  0
   -0.8309    2.5652    0.8093 N   0  0  0  0  0  0  0  0  0  0  0  0
   -1.3449    3.4091    1.8423 N   0  0  0  0  0  0  0  0  0  0  0  0
   -5.6500   -1.9546    0.5518 H   0  0  0  0  0  0  0  0  0  0  0  0
   -4.9973   -1.3285   -0.9766 H   0  0  0  0  0  0  0  0  0  0  0  0
   -6.7086   -1.7680   -0.8515 H   0  0  0  0  0  0  0  0  0  0  0  0
   -7.1542    0.0599    0.7092 H   0  0  0  0  0  0  0  0  0  0  0  0
   -6.4460    0.7179   -0.7583 H   0  0  0  0  0  0  0  0  0  0  0  0
   -4.8920    0.0489    1.6643 H   0  0  0  0  0  0  0  0  0  0  0  0
   -3.5558    1.5132    2.6949 H   0  0  0  0  0  0  0  0  0  0  0  0
   -0.4466   -0.0239    3.3028 H   0  0  0  0  0  0  0  0  0  0  0  0
   -0.5416   -0.6062    1.6386 H   0  0  0  0  0  0  0  0  0  0  0  0
    0.1194   -2.1348    3.9283 H   0  0  0  0  0  0  0  0  0  0  0  0
   -3.2902   -4.1967    2.8781 H   0  0  0  0  0  0  0  0  0  0  0  0
   -2.7219    1.0330   -1.6469 H   0  0  0  0  0  0  0  0  0  0  0  0
    1.0030   -1.7118   -3.6304 H   0  0  0  0  0  0  0  0  0  0  0  0
    2.4404   -2.1067   -3.0116 H   0  0  0  0  0  0  0  0  0  0  0  0
    1.0734   -1.0303   -0.2218 H   0  0  0  0  0  0  0  0  0  0  0  0
    3.3162   -1.4636    0.7115 H   0  0  0  0  0  0  0  0  0  0  0  0
    3.0066   -2.4776   -0.6832 H   0  0  0  0  0  0  0  0  0  0  0  0
    5.1527    0.5342    0.3083 H   0  0  0  0  0  0  0  0  0  0  0  0
    7.5814    0.8799    0.1089 H   0  0  0  0  0  0  0  0  0  0  0  0
    6.9494   -1.1748   -2.8050 H   0  0  0  0  0  0  0  0  0  0  0  0
    5.1223   -2.4703   -3.7266 H   0  0  0  0  0  0  0  0  0  0  0  0
    3.0389    1.0625   -0.3182 H   0  0  0  0  0  0  0  0  0  0  0  0
    2.5943    3.1208   -2.8024 H   0  0  0  0  0  0  0  0  0  0  0  0
   -1.3544    2.8902    2.7184 H   0  0  0  0  0  0  0  0  0  0  0  0
   -2.2846    3.7367    1.6218 H   0  0  0  0  0  0  0  0  0  0  0  0
  2  1  1  0  0  0  0
  3  2  1  0  0  0  0
  4  3  1  0  0  0  0
  5  4  2  0  0  0  0
  6  5  1  0  0  0  0
  7  6  1  0  0  0  0
  8  7  2  0  0  0  0
  9  8  1  0  0  0  0
 10  9  1  0  0  0  0
 11  8  1  0  0  0  0
 12 11  2  0  0  0  0
 13 11  1  0  0  0  0
 14  5  1  0  0  0  0
 15 14  2  0  0  0  0
 16 15  1  0  0  0  0
 17 16  2  0  0  0  0
 18 16  1  0  0  0  0
 19 18  2  0  0  0  0
 20 19  1  0  0  0  0
 21 20  1  0  0  0  0
 22 20  1  0  0  0  0
 23 22  1  0  0  0  0
 24 23  1  0  0  0  0
 25 24  1  0  0  0  0
 26 25  1  0  0  0  0
 27 26  2  0  0  0  0
 28 26  1  0  0  0  0
 29 28  1  0  0  0  0
 29 24  1  0  0  0  0
 30 29  2  0  0  0  0
 31 22  1  0  0  0  0
 32 31  1  0  0  0  0
 33 32  2  0  0  0  0
 33 18  1  0  0  0  0
 34 33  1  0  0  0  0
 35 32  1  0  0  0  0
 36 35  2  0  0  0  0
 37 35  1  0  0  0  0
 37 14  1  0  0  0  0
 38 37  1  0  0  0  0
  1 39  1  0  0  0  0
  1 40  1  0  0  0  0
  1 41  1  0  0  0  0
  2 42  1  0  0  0  0
  2 43  1  0  0  0  0
  3 44  1  0  0  0  0
  6 45  1  0  0  0  0
  9 46  1  0  0  0  0
  9 47  1  0  0  0  0
 10 48  1  0  0  0  0
 13 49  1  0  0  0  0
 15 50  1  0  0  0  0
 21 51  1  0  0  0  0
 21 52  1  0  0  0  0
 22 53  1  0  0  0  0
 23 54  1  0  0  0  0
 23 55  1  0  0  0  0
 25 56  1  0  0  0  0
 27 57  1  0  0  0  0
 28 58  1  0  0  0  0
 30 59  1  0  0  0  0
 31 60  1  0  0  0  0
 34 61  1  0  0  0  0
 38 62  1  0  0  0  0
 38 63  1  0  0  0  0
M  END
>  <energy>
319.66619288398562

$$$$
