C=C(O)CC1C2CC3C4CCC5(C1CC35)C4C2
                    3D

 39 43  0  0  0  0  0  0  0  0999 V2000
   -3.8655    0.0384    1.3216 C   0  0  0  0  0  0  0  0  0  0  0  0
   -3.2477    0.6156    0.2831 C   0  0  0  0  0  0  0  0  0  0  0  0
   -3.2059    1.9871    0.1523 O   0  0  0  0  0  0  0  0  0  0  0  0
   -2.6594   -0.1555   -0.8715 C   0  0  0  0  0  0  0  0  0  0  0  0
   -1.1326   -0.1188   -1.1326 C   0  0  0  0  0  0  0  0  0  0  0  0
   -0.3866    1.2267   -0.8835 C   0  0  0  0  0  0  0  0  0  0  0  0
    0.0780    1.5814    0.5571 C   0  0  0  0  0  0  0  0  0  0  0  0
    1.2703    0.7428    1.0858 C   0  0  0  0  0  0  0  0  0  0  0  0
    2.5043    0.6269    0.1205 C   0  0  0  0  0  0  0  0  0  0  0  0
    3.3922   -0.6412    0.4150 C   0  0  0  0  0  0  0  0  0  0  0  0
    2.4938   -1.8609   -0.0517 C   0  0  0  0  0  0  0  0  0  0  0  0
    1.1992   -1.0979   -0.3588 C   0  0  0  0  0  0  0  0  0  0  0  0
   -0.3655   -1.3217   -0.5324 C   0  0  0  0  0  0  0  0  0  0  0  0
   -0.5051   -1.4187    0.9885 C   0  0  0  0  0  0  0  0  0  0  0  0
    0.8357   -0.7062    1.1372 C   0  0  0  0  0  0  0  0  0  0  0  0
    1.8111    0.1255   -1.1273 C   0  0  0  0  0  0  0  0  0  0  0  0
    0.8710    1.1437   -1.7281 C   0  0  0  0  0  0  0  0  0  0  0  0
   -4.3180    0.6152    2.1199 H   0  0  0  0  0  0  0  0  0  0  0  0
   -3.9363   -1.0426    1.3982 H   0  0  0  0  0  0  0  0  0  0  0  0
   -3.6301    2.3899    0.9288 H   0  0  0  0  0  0  0  0  0  0  0  0
   -3.1489    0.2448   -1.7719 H   0  0  0  0  0  0  0  0  0  0  0  0
   -2.9833   -1.2040   -0.8218 H   0  0  0  0  0  0  0  0  0  0  0  0
   -1.0838   -0.2912   -2.2201 H   0  0  0  0  0  0  0  0  0  0  0  0
   -1.0077    2.0442   -1.2678 H   0  0  0  0  0  0  0  0  0  0  0  0
    0.3899    2.6340    0.5619 H   0  0  0  0  0  0  0  0  0  0  0  0
   -0.7608    1.5052    1.2556 H   0  0  0  0  0  0  0  0  0  0  0  0
    1.5803    1.1002    2.0735 H   0  0  0  0  0  0  0  0  0  0  0  0
    3.0707    1.5540    0.0099 H   0  0  0  0  0  0  0  0  0  0  0  0
    3.6578   -0.7118    1.4745 H   0  0  0  0  0  0  0  0  0  0  0  0
    4.3168   -0.6211   -0.1730 H   0  0  0  0  0  0  0  0  0  0  0  0
    2.9097   -2.3244   -0.9531 H   0  0  0  0  0  0  0  0  0  0  0  0
    2.4079   -2.6352    0.7175 H   0  0  0  0  0  0  0  0  0  0  0  0
   -0.6195   -2.2549   -1.0497 H   0  0  0  0  0  0  0  0  0  0  0  0
   -0.4792   -2.4562    1.3468 H   0  0  0  0  0  0  0  0  0  0  0  0
   -1.3359   -0.9270    1.4882 H   0  0  0  0  0  0  0  0  0  0  0  0
    1.3723   -1.1884    1.9694 H   0  0  0  0  0  0  0  0  0  0  0  0
    2.5207   -0.1859   -1.9060 H   0  0  0  0  0  0  0  0  0  0  0  0
    1.3621    2.1229   -1.7948 H   0  0  0  0  0  0  0  0  0  0  0  0
    0.6280    0.8650   -2.7611 H   0  0  0  0  0  0  0  0  0  0  0  0
  2  1  2  0  0  0  0
  3  2  1  0  0  0  0
  4  2  1  0  0  0  0
  5  4  1  0  0  0  0
  6  5  1  0  0  0  0
  7  6  1  0  0  0  0
  8  7  1  0  0  0  0
  9  8  1  0  0  0  0
 10  9  1  0  0  0  0
 11 10  1  0  0  0  0
 12 11  1  0  0  0  0
 13 12  1  0  0  0  0
 13  5  1  0  0  0  0
 14 13  1  0  0  0  0
 15 14  1  0  0  0  0
 15  8  1  0  0  0  0
 15 12  1  0  0  0  0
 16 12  1  0  0  0  0
 16  9  1  0  0  0  0
 17 16  1  0  0  0  0
 17  6  1  0  0  0  0
  1 18  1  0  0  0  0
  1 19  1  0  0  0  0
  3 20  1  0  0  0  0
  4 21  1  0  0  0  0
  4 22  1  0  0  0  0
  5 23  1  0  0  0  0
  6 24  1  0  0  0  0
  7 25  1  0  0  0  0
  7 26  1  0  0  0  0
  8 27  1  0  0  0  0
  9 28  1  0  0  0  0
 10 29  1  0  0  0  0
 10 30  1  0  0  0  0
 11 31  1  0  0  0  0
 11 32  1  0  0  0  0
 13 33  1  0  0  0  0
 14 34  1  0  0  0  0
 14 35  1  0  0  0  0
 15 36  1  0  0  0  0
 16 37  1  0  0  0  0
 17 38  1  0  0  0  0
 17 39  1  0  0  0  0
M  END
>  <energy>
101.77315272649251

$$$$
