CN1C(=O)c2cnc3[nH]c(-c4cccc5c4C(=O)NC5=O)cc3c2-c2cccc1n2
                    3D

 43 48  0  0  0  0  0  0  0  0999 V2000
    5.5295    1.5803   -2.1333 C   0  0  0  0  0  0  0  0  0  0  0  0
    4.4187    1.0055   -1.3919 N   0  0  0  0  0  0  0  0  0  0  0  0
    3.7392   -0.1139   -1.9297 C   0  0  0  0  0  0  0  0  0  0  0  0
    4.1838   -0.6552   -2.9484 O   0  0  0  0  0  0  0  0  0  0  0  0
    2.4885   -0.7672   -1.3432 C   0  0  0  0  0  0  0  0  0  0  0  0
    1.9992   -1.8804   -2.0341 C   0  0  0  0  0  0  0  0  0  0  0  0
    0.8094   -2.5172   -1.8177 N   0  0  0  0  0  0  0  0  0  0  0  0
    0.0704   -1.9105   -0.8734 C   0  0  0  0  0  0  0  0  0  0  0  0
   -1.2603   -2.1589   -0.6644 N   0  0  0  0  0  0  0  0  0  0  0  0
   -1.7767   -1.1701    0.1444 C   0  0  0  0  0  0  0  0  0  0  0  0
   -3.1635   -0.7241    0.0820 C   0  0  0  0  0  0  0  0  0  0  0  0
   -3.6927   -0.3156   -1.1645 C   0  0  0  0  0  0  0  0  0  0  0  0
   -4.9770    0.2623   -1.2846 C   0  0  0  0  0  0  0  0  0  0  0  0
   -5.7708    0.4274   -0.1579 C   0  0  0  0  0  0  0  0  0  0  0  0
   -5.2375    0.0209    1.0520 C   0  0  0  0  0  0  0  0  0  0  0  0
   -3.9588   -0.5131    1.1878 C   0  0  0  0  0  0  0  0  0  0  0  0
   -3.7369   -0.7240    2.6269 C   0  0  0  0  0  0  0  0  0  0  0  0
   -2.7386   -1.1608    3.1524 O   0  0  0  0  0  0  0  0  0  0  0  0
   -4.8815   -0.3179    3.2514 N   0  0  0  0  0  0  0  0  0  0  0  0
   -5.8380    0.0897    2.3806 C   0  0  0  0  0  0  0  0  0  0  0  0
   -6.9844    0.4247    2.6101 O   0  0  0  0  0  0  0  0  0  0  0  0
   -0.6936   -0.5370    0.7384 C   0  0  0  0  0  0  0  0  0  0  0  0
    0.4488   -0.8747   -0.0353 C   0  0  0  0  0  0  0  0  0  0  0  0
    1.7190   -0.3113   -0.2365 C   0  0  0  0  0  0  0  0  0  0  0  0
    2.1179    0.8606    0.5220 C   0  0  0  0  0  0  0  0  0  0  0  0
    2.6644    0.7592    1.7934 C   0  0  0  0  0  0  0  0  0  0  0  0
    3.9143    1.3596    1.9696 C   0  0  0  0  0  0  0  0  0  0  0  0
    4.5845    1.8384    0.8367 C   0  0  0  0  0  0  0  0  0  0  0  0
    3.8758    1.8010   -0.3616 C   0  0  0  0  0  0  0  0  0  0  0  0
    2.5599    1.7742   -0.3281 N   0  0  0  0  0  0  0  0  0  0  0  0
    5.1255    2.1451   -2.9851 H   0  0  0  0  0  0  0  0  0  0  0  0
    6.1274    2.2500   -1.5037 H   0  0  0  0  0  0  0  0  0  0  0  0
    6.1732    0.7821   -2.5132 H   0  0  0  0  0  0  0  0  0  0  0  0
    2.5447   -2.3102   -2.8734 H   0  0  0  0  0  0  0  0  0  0  0  0
   -1.7964   -2.8079   -1.2265 H   0  0  0  0  0  0  0  0  0  0  0  0
   -3.0803   -0.3855   -2.0620 H   0  0  0  0  0  0  0  0  0  0  0  0
   -5.3322    0.6086   -2.2553 H   0  0  0  0  0  0  0  0  0  0  0  0
   -6.7601    0.8740   -0.2085 H   0  0  0  0  0  0  0  0  0  0  0  0
   -5.0104   -0.3571    4.2472 H   0  0  0  0  0  0  0  0  0  0  0  0
   -0.7573    0.2913    1.4268 H   0  0  0  0  0  0  0  0  0  0  0  0
    2.2447    0.0985    2.5485 H   0  0  0  0  0  0  0  0  0  0  0  0
    4.4515    1.2491    2.9052 H   0  0  0  0  0  0  0  0  0  0  0  0
    5.6564    2.0100    0.8568 H   0  0  0  0  0  0  0  0  0  0  0  0
  2  1  1  0  0  0  0
  3  2  1  0  0  0  0
  4  3  2  0  0  0  0
  5  3  1  0  0  0  0
  6  5  2  0  0  0  0
  7  6  1  0  0  0  0
  8  7  2  0  0  0  0
  9  8  1  0  0  0  0
 10  9  1  0  0  0  0
 11 10  1  0  0  0  0
 12 11  2  0  0  0  0
 13 12  1  0  0  0  0
 14 13  2  0  0  0  0
 15 14  1  0  0  0  0
 16 15  2  0  0  0  0
 16 11  1  0  0  0  0
 17 16  1  0  0  0  0
 18 17  2  0  0  0  0
 19 17  1  0  0  0  0
 20 19  1  0  0  0  0
 20 15  1  0  0  0  0
 21 20  2  0  0  0  0
 22 10  2  0  0  0  0
 23 22  1  0  0  0  0
 23  8  1  0  0  0  0
 24 23  2  0  0  0  0
 24  5  1  0  0  0  0
 25 24  1  0  0  0  0
 26 25  2  0  0  0  0
 27 26  1  0  0  0  0
 28 27  2  0  0  0  0
 29 28  1  0  0  0  0
 29  2  1  0  0  0  0
 30 29  2  0  0  0  0
 30 25  1  0  0  0  0
  1 31  1  0  0  0  0
  1 32  1  0  0  0  0
  1 33  1  0  0  0  0
  6 34  1  0  0  0  0
  9 35  1  0  0  0  0
 12 36  1  0  0  0  0
 13 37  1  0  0  0  0
 14 38  1  0  0  0  0
 19 39  1  0  0  0  0
 22 40  1  0  0  0  0
 26 41  1  0  0  0  0
 27 42  1  0  0  0  0
 28 43  1  0  0  0  0
M  END
>  <energy>
77.681224150256043

$$$$
