N#CC(NC(=O)CCC(=O)N1CCSC1)OCc1c(CN2CCOCC2)cc2c3c1CN1CCCC(C3)C2C1
                    3D

 78 83  0  0  0  0  0  0  0  0999 V2000
   -2.3837   -0.6166   -5.9247 N   0  0  0  0  0  0  0  0  0  0  0  0
   -2.0867   -0.0067   -4.9816 C   0  0  0  0  0  0  0  0  0  0  0  0
   -1.6694    0.7486   -3.7797 C   0  0  0  0  0  0  0  0  0  0  0  0
   -2.7630    0.9841   -2.8628 N   0  0  0  0  0  0  0  0  0  0  0  0
   -2.6073    1.9852   -1.9316 C   0  0  0  0  0  0  0  0  0  0  0  0
   -1.7542    2.8608   -2.0399 O   0  0  0  0  0  0  0  0  0  0  0  0
   -3.5608    1.9421   -0.7587 C   0  0  0  0  0  0  0  0  0  0  0  0
   -2.7712    1.7291    0.5300 C   0  0  0  0  0  0  0  0  0  0  0  0
   -3.7072    1.7315    1.7170 C   0  0  0  0  0  0  0  0  0  0  0  0
   -3.9244    2.7727    2.3351 O   0  0  0  0  0  0  0  0  0  0  0  0
   -4.3605    0.5521    2.0232 N   0  0  0  0  0  0  0  0  0  0  0  0
   -3.8989   -0.7754    1.6449 C   0  0  0  0  0  0  0  0  0  0  0  0
   -5.0303   -1.7614    1.8938 C   0  0  0  0  0  0  0  0  0  0  0  0
   -5.8237   -1.1535    3.4013 S   0  0  0  0  0  0  0  0  0  0  0  0
   -5.2402    0.5449    3.1758 C   0  0  0  0  0  0  0  0  0  0  0  0
   -0.7488   -0.0395   -3.0342 O   0  0  0  0  0  0  0  0  0  0  0  0
    0.5316    0.5645   -2.8952 C   0  0  0  0  0  0  0  0  0  0  0  0
    1.0244    0.2246   -1.5126 C   0  0  0  0  0  0  0  0  0  0  0  0
    1.4887   -1.0683   -1.1867 C   0  0  0  0  0  0  0  0  0  0  0  0
    1.4025   -2.2728   -2.1008 C   0  0  0  0  0  0  0  0  0  0  0  0
    1.2585   -3.4846   -1.3081 N   0  0  0  0  0  0  0  0  0  0  0  0
    1.8361   -4.7093   -1.8333 C   0  0  0  0  0  0  0  0  0  0  0  0
    1.2041   -5.9795   -1.2206 C   0  0  0  0  0  0  0  0  0  0  0  0
    0.9587   -5.8595    0.1832 O   0  0  0  0  0  0  0  0  0  0  0  0
    0.2187   -4.6790    0.5272 C   0  0  0  0  0  0  0  0  0  0  0  0
   -0.0140   -3.6853   -0.6277 C   0  0  0  0  0  0  0  0  0  0  0  0
    2.2316   -1.1790   -0.0024 C   0  0  0  0  0  0  0  0  0  0  0  0
    2.1431   -0.1452    0.9033 C   0  0  0  0  0  0  0  0  0  0  0  0
    1.1506    0.8027    0.8053 C   0  0  0  0  0  0  0  0  0  0  0  0
    1.0873    1.2239   -0.5060 C   0  0  0  0  0  0  0  0  0  0  0  0
    1.8002    2.5631   -0.7956 C   0  0  0  0  0  0  0  0  0  0  0  0
    3.1087    2.7420   -0.0969 N   0  0  0  0  0  0  0  0  0  0  0  0
    3.1540    3.8817    0.8186 C   0  0  0  0  0  0  0  0  0  0  0  0
    3.9101    3.6796    2.1329 C   0  0  0  0  0  0  0  0  0  0  0  0
    3.2918    2.6795    3.1146 C   0  0  0  0  0  0  0  0  0  0  0  0
    2.6138    1.4166    2.5765 C   0  0  0  0  0  0  0  0  0  0  0  0
    1.1882    1.6737    2.0326 C   0  0  0  0  0  0  0  0  0  0  0  0
    3.3369    0.6319    1.4642 C   0  0  0  0  0  0  0  0  0  0  0  0
    3.8902    1.5406    0.2943 C   0  0  0  0  0  0  0  0  0  0  0  0
   -1.2498    1.7069   -4.1039 H   0  0  0  0  0  0  0  0  0  0  0  0
   -3.3139    0.1725   -2.6206 H   0  0  0  0  0  0  0  0  0  0  0  0
   -4.0939    2.9013   -0.7352 H   0  0  0  0  0  0  0  0  0  0  0  0
   -4.3261    1.1694   -0.8895 H   0  0  0  0  0  0  0  0  0  0  0  0
   -2.0422    2.5362    0.6695 H   0  0  0  0  0  0  0  0  0  0  0  0
   -2.1746    0.8110    0.5020 H   0  0  0  0  0  0  0  0  0  0  0  0
   -3.5764   -0.8140    0.6003 H   0  0  0  0  0  0  0  0  0  0  0  0
   -3.0319   -1.0087    2.2774 H   0  0  0  0  0  0  0  0  0  0  0  0
   -5.7594   -1.7253    1.0761 H   0  0  0  0  0  0  0  0  0  0  0  0
   -4.6731   -2.7903    2.0007 H   0  0  0  0  0  0  0  0  0  0  0  0
   -4.6882    0.8708    4.0641 H   0  0  0  0  0  0  0  0  0  0  0  0
   -6.0813    1.2211    3.0003 H   0  0  0  0  0  0  0  0  0  0  0  0
    1.2030    0.1558   -3.6591 H   0  0  0  0  0  0  0  0  0  0  0  0
    0.4929    1.6482   -3.0429 H   0  0  0  0  0  0  0  0  0  0  0  0
    0.5768   -2.1913   -2.8132 H   0  0  0  0  0  0  0  0  0  0  0  0
    2.3292   -2.2943   -2.6889 H   0  0  0  0  0  0  0  0  0  0  0  0
    2.9015   -4.6943   -1.5825 H   0  0  0  0  0  0  0  0  0  0  0  0
    1.7532   -4.7734   -2.9244 H   0  0  0  0  0  0  0  0  0  0  0  0
    0.2553   -6.2227   -1.7155 H   0  0  0  0  0  0  0  0  0  0  0  0
    1.8750   -6.8326   -1.3695 H   0  0  0  0  0  0  0  0  0  0  0  0
   -0.7394   -4.9887    0.9545 H   0  0  0  0  0  0  0  0  0  0  0  0
    0.7794   -4.1798    1.3260 H   0  0  0  0  0  0  0  0  0  0  0  0
   -0.4193   -2.7568   -0.2076 H   0  0  0  0  0  0  0  0  0  0  0  0
   -0.7666   -4.0662   -1.3290 H   0  0  0  0  0  0  0  0  0  0  0  0
    2.8934   -2.0220    0.1664 H   0  0  0  0  0  0  0  0  0  0  0  0
    2.0079    2.6413   -1.8654 H   0  0  0  0  0  0  0  0  0  0  0  0
    1.0946    3.3720   -0.5673 H   0  0  0  0  0  0  0  0  0  0  0  0
    3.6339    4.7107    0.2843 H   0  0  0  0  0  0  0  0  0  0  0  0
    2.1533    4.2475    1.0668 H   0  0  0  0  0  0  0  0  0  0  0  0
    4.9564    3.4074    1.9426 H   0  0  0  0  0  0  0  0  0  0  0  0
    3.9750    4.6483    2.6476 H   0  0  0  0  0  0  0  0  0  0  0  0
    2.5543    3.2212    3.7257 H   0  0  0  0  0  0  0  0  0  0  0  0
    4.0793    2.3787    3.8163 H   0  0  0  0  0  0  0  0  0  0  0  0
    2.4990    0.7396    3.4383 H   0  0  0  0  0  0  0  0  0  0  0  0
    0.4443    1.2959    2.7478 H   0  0  0  0  0  0  0  0  0  0  0  0
    0.9303    2.7140    1.8385 H   0  0  0  0  0  0  0  0  0  0  0  0
    4.1062   -0.0452    1.8495 H   0  0  0  0  0  0  0  0  0  0  0  0
    4.9106    1.8456    0.5532 H   0  0  0  0  0  0  0  0  0  0  0  0
    4.0461    0.9308   -0.6084 H   0  0  0  0  0  0  0  0  0  0  0  0
  2  1  3  0  0  0  0
  3  2  1  0  0  0  0
  4  3  1  0  0  0  0
  5  4  1  0  0  0  0
  6  5  2  0  0  0  0
  7  5  1  0  0  0  0
  8  7  1  0  0  0  0
  9  8  1  0  0  0  0
 10  9  2  0  0  0  0
 11  9  1  0  0  0  0
 12 11  1  0  0  0  0
 13 12  1  0  0  0  0
 14 13  1  0  0  0  0
 15 14  1  0  0  0  0
 15 11  1  0  0  0  0
 16  3  1  0  0  0  0
 17 16  1  0  0  0  0
 18 17  1  0  0  0  0
 19 18  2  0  0  0  0
 20 19  1  0  0  0  0
 21 20  1  0  0  0  0
 22 21  1  0  0  0  0
 23 22  1  0  0  0  0
 24 23  1  0  0  0  0
 25 24  1  0  0  0  0
 26 25  1  0  0  0  0
 26 21  1  0  0  0  0
 27 19  1  0  0  0  0
 28 27  2  0  0  0  0
 29 28  1  0  0  0  0
 30 29  2  0  0  0  0
 30 18  1  0  0  0  0
 31 30  1  0  0  0  0
 32 31  1  0  0  0  0
 33 32  1  0  0  0  0
 34 33  1  0  0  0  0
 35 34  1  0  0  0  0
 36 35  1  0  0  0  0
 37 36  1  0  0  0  0
 37 29  1  0  0  0  0
 38 36  1  0  0  0  0
 38 28  1  0  0  0  0
 39 38  1  0  0  0  0
 39 32  1  0  0  0  0
  3 40  1  0  0  0  0
  4 41  1  0  0  0  0
  7 42  1  0  0  0  0
  7 43  1  0  0  0  0
  8 44  1  0  0  0  0
  8 45  1  0  0  0  0
 12 46  1  0  0  0  0
 12 47  1  0  0  0  0
 13 48  1  0  0  0  0
 13 49  1  0  0  0  0
 15 50  1  0  0  0  0
 15 51  1  0  0  0  0
 17 52  1  0  0  0  0
 17 53  1  0  0  0  0
 20 54  1  0  0  0  0
 20 55  1  0  0  0  0
 22 56  1  0  0  0  0
 22 57  1  0  0  0  0
 23 58  1  0  0  0  0
 23 59  1  0  0  0  0
 25 60  1  0  0  0  0
 25 61  1  0  0  0  0
 26 62  1  0  0  0  0
 26 63  1  0  0  0  0
 27 64  1  0  0  0  0
 31 65  1  0  0  0  0
 31 66  1  0  0  0  0
 33 67  1  0  0  0  0
 33 68  1  0  0  0  0
 34 69  1  0  0  0  0
 34 70  1  0  0  0  0
 35 71  1  0  0  0  0
 35 72  1  0  0  0  0
 36 73  1  0  0  0  0
 37 74  1  0  0  0  0
 37 75  1  0  0  0  0
 38 76  1  0  0  0  0
 39 77  1  0  0  0  0
 39 78  1  0  0  0  0
M  END
>  <energy>
170.89666210912725

$$$$
