CC12CCN3CC1C3C2CO
                    3D

 26 28  0  0  0  0  0  0  0  0999 V2000
   -1.1846    1.9461    0.1424 C   0  0  0  0  0  0  0  0  0  0  0  0
   -0.5583    0.5640    0.1040 C   0  0  0  0  0  0  0  0  0  0  0  0
   -0.9022   -0.2129   -1.1663 C   0  0  0  0  0  0  0  0  0  0  0  0
   -0.2744   -1.6024   -1.0394 C   0  0  0  0  0  0  0  0  0  0  0  0
    0.0283   -1.9628    0.3561 N   0  0  0  0  0  0  0  0  0  0  0  0
   -1.2116   -1.7523    1.1627 C   0  0  0  0  0  0  0  0  0  0  0  0
   -0.7675   -0.3043    1.3996 C   0  0  0  0  0  0  0  0  0  0  0  0
    0.6623   -0.8536    1.1498 C   0  0  0  0  0  0  0  0  0  0  0  0
    0.9674    0.4953    0.4560 C   0  0  0  0  0  0  0  0  0  0  0  0
    2.0857    0.5949   -0.5644 C   0  0  0  0  0  0  0  0  0  0  0  0
    2.0557    1.8968   -1.1394 O   0  0  0  0  0  0  0  0  0  0  0  0
   -0.8428    2.5550   -0.7011 H   0  0  0  0  0  0  0  0  0  0  0  0
   -2.2767    1.8823    0.0926 H   0  0  0  0  0  0  0  0  0  0  0  0
   -0.9256    2.4786    1.0638 H   0  0  0  0  0  0  0  0  0  0  0  0
   -0.5306    0.2964   -2.0625 H   0  0  0  0  0  0  0  0  0  0  0  0
   -1.9909   -0.3026   -1.2667 H   0  0  0  0  0  0  0  0  0  0  0  0
    0.6434   -1.6708   -1.6307 H   0  0  0  0  0  0  0  0  0  0  0  0
   -0.9445   -2.3508   -1.4815 H   0  0  0  0  0  0  0  0  0  0  0  0
   -1.2365   -2.3579    2.0780 H   0  0  0  0  0  0  0  0  0  0  0  0
   -2.1690   -1.8958    0.6501 H   0  0  0  0  0  0  0  0  0  0  0  0
   -0.9559    0.1868    2.3552 H   0  0  0  0  0  0  0  0  0  0  0  0
    1.2444   -1.1504    2.0254 H   0  0  0  0  0  0  0  0  0  0  0  0
    1.2184    1.2446    1.2293 H   0  0  0  0  0  0  0  0  0  0  0  0
    2.0091   -0.1314   -1.3726 H   0  0  0  0  0  0  0  0  0  0  0  0
    3.0566    0.4583   -0.0766 H   0  0  0  0  0  0  0  0  0  0  0  0
    2.7998    1.9488   -1.7635 H   0  0  0  0  0  0  0  0  0  0  0  0
  2  1  1  0  0  0  0
  3  2  1  0  0  0  0
  4  3  1  0  0  0  0
  5  4  1  0  0  0  0
  6  5  1  0  0  0  0
  7  6  1  0  0  0  0
  7  2  1  0  0  0  0
  8  7  1  0  0  0  0
  8  5  1  0  0  0  0
  9  8  1  0  0  0  0
  9  2  1  0  0  0  0
 10  9  1  0  0  0  0
 11 10  1  0  0  0  0
  1 12  1  0  0  0  0
  1 13  1  0  0  0  0
  1 14  1  0  0  0  0
  3 15  1  0  0  0  0
  3 16  1  0  0  0  0
  4 17  1  0  0  0  0
  4 18  1  0  0  0  0
  6 19  1  0  0  0  0
  6 20  1  0  0  0  0
  7 21  1  0  0  0  0
  8 22  1  0  0  0  0
  9 23  1  0  0  0  0
 10 24  1  0  0  0  0
 10 25  1  0  0  0  0
 11 26  1  0  0  0  0
M  END
>  <energy>
46.316533470252736

$$$$
