CC12CCC34CCC1(OC3O)C4(OO)O2
                    3D

 29 32  0  0  0  0  0  0  0  0999 V2000
    2.5266    1.1599   -0.8946 C   0  0  0  0  0  0  0  0  0  0  0  0
    1.3716    0.4289   -0.2485 C   0  0  0  0  0  0  0  0  0  0  0  0
    1.4281   -1.1583   -0.4430 C   0  0  0  0  0  0  0  0  0  0  0  0
    0.0946   -1.7994    0.1370 C   0  0  0  0  0  0  0  0  0  0  0  0
   -0.8436   -0.6273    0.1415 C   0  0  0  0  0  0  0  0  0  0  0  0
   -2.1816   -0.1627    0.6829 C   0  0  0  0  0  0  0  0  0  0  0  0
   -1.8095    1.4031    0.5500 C   0  0  0  0  0  0  0  0  0  0  0  0
   -0.2240    1.4222   -0.0414 C   0  0  0  0  0  0  0  0  0  0  0  0
   -0.6520    1.1679   -1.4197 O   0  0  0  0  0  0  0  0  0  0  0  0
   -1.0548   -0.1803   -1.4166 C   0  0  0  0  0  0  0  0  0  0  0  0
   -0.3547   -0.8796   -2.4151 O   0  0  0  0  0  0  0  0  0  0  0  0
   -0.0423    0.4080    1.0817 C   0  0  0  0  0  0  0  0  0  0  0  0
   -0.5208    0.5339    2.4574 O   0  0  0  0  0  0  0  0  0  0  0  0
    0.0995   -0.5597    3.2006 O   0  0  0  0  0  0  0  0  0  0  0  0
    1.4045    0.5323    1.1624 O   0  0  0  0  0  0  0  0  0  0  0  0
    2.5568    2.2069   -0.5763 H   0  0  0  0  0  0  0  0  0  0  0  0
    3.4859    0.7011   -0.6338 H   0  0  0  0  0  0  0  0  0  0  0  0
    2.4280    1.1452   -1.9845 H   0  0  0  0  0  0  0  0  0  0  0  0
    2.2887   -1.5707    0.1002 H   0  0  0  0  0  0  0  0  0  0  0  0
    1.5931   -1.4185   -1.4918 H   0  0  0  0  0  0  0  0  0  0  0  0
    0.2800   -2.1816    1.1460 H   0  0  0  0  0  0  0  0  0  0  0  0
   -0.2422   -2.6390   -0.4781 H   0  0  0  0  0  0  0  0  0  0  0  0
   -2.3999   -0.4550    1.7148 H   0  0  0  0  0  0  0  0  0  0  0  0
   -3.0629   -0.4273    0.0907 H   0  0  0  0  0  0  0  0  0  0  0  0
   -2.4754    1.8953   -0.1728 H   0  0  0  0  0  0  0  0  0  0  0  0
   -1.9119    1.9724    1.4832 H   0  0  0  0  0  0  0  0  0  0  0  0
   -2.1088   -0.2423   -1.7115 H   0  0  0  0  0  0  0  0  0  0  0  0
   -0.6677   -0.5084   -3.2576 H   0  0  0  0  0  0  0  0  0  0  0  0
    0.9947   -0.1670    3.2370 H   0  0  0  0  0  0  0  0  0  0  0  0
  2  1  1  0  0  0  0
  3  2  1  0  0  0  0
  4  3  1  0  0  0  0
  5  4  1  0  0  0  0
  6  5  1  0  0  0  0
  7  6  1  0  0  0  0
  8  7  1  0  0  0  0
  8  2  1  0  0  0  0
  9  8  1  0  0  0  0
 10  9  1  0  0  0  0
 10  5  1  0  0  0  0
 11 10  1  0  0  0  0
 12  8  1  0  0  0  0
 12  5  1  0  0  0  0
 13 12  1  0  0  0  0
 14 13  1  0  0  0  0
 15 12  1  0  0  0  0
 15  2  1  0  0  0  0
  1 16  1  0  0  0  0
  1 17  1  0  0  0  0
  1 18  1  0  0  0  0
  3 19  1  0  0  0  0
  3 20  1  0  0  0  0
  4 21  1  0  0  0  0
  4 22  1  0  0  0  0
  6 23  1  0  0  0  0
  6 24  1  0  0  0  0
  7 25  1  0  0  0  0
  7 26  1  0  0  0  0
 10 27  1  0  0  0  0
 11 28  1  0  0  0  0
 14 29  1  0  0  0  0
M  END
>  <energy>
216.67735559168395

$$$$
