CC(CC1CC1)N1CC2NCC21
                    3D

 30 32  0  0  0  0  0  0  0  0999 V2000
    0.1844   -2.0003   -1.0307 C   0  0  0  0  0  0  0  0  0  0  0  0
   -0.3421   -0.9010   -0.0897 C   0  0  0  0  0  0  0  0  0  0  0  0
   -1.3573   -0.0168   -0.8599 C   0  0  0  0  0  0  0  0  0  0  0  0
   -2.1629    0.8740    0.0470 C   0  0  0  0  0  0  0  0  0  0  0  0
   -3.4876    1.4206   -0.4182 C   0  0  0  0  0  0  0  0  0  0  0  0
   -3.4441    0.3779    0.6649 C   0  0  0  0  0  0  0  0  0  0  0  0
    0.6583   -0.0462    0.5851 N   0  0  0  0  0  0  0  0  0  0  0  0
    1.6136   -0.8248    1.4047 C   0  0  0  0  0  0  0  0  0  0  0  0
    2.7441   -0.4743    0.4168 C   0  0  0  0  0  0  0  0  0  0  0  0
    3.5187    0.6999    0.8455 N   0  0  0  0  0  0  0  0  0  0  0  0
    2.4911    1.6099    0.2969 C   0  0  0  0  0  0  0  0  0  0  0  0
    1.7369    0.4113   -0.3026 C   0  0  0  0  0  0  0  0  0  0  0  0
   -0.6468   -2.6251   -1.3778 H   0  0  0  0  0  0  0  0  0  0  0  0
    0.8932   -2.6674   -0.5320 H   0  0  0  0  0  0  0  0  0  0  0  0
    0.6704   -1.5865   -1.9196 H   0  0  0  0  0  0  0  0  0  0  0  0
   -0.9050   -1.4089    0.7061 H   0  0  0  0  0  0  0  0  0  0  0  0
   -0.8372    0.6076   -1.5971 H   0  0  0  0  0  0  0  0  0  0  0  0
   -2.0367   -0.6632   -1.4311 H   0  0  0  0  0  0  0  0  0  0  0  0
   -1.5371    1.5370    0.6356 H   0  0  0  0  0  0  0  0  0  0  0  0
   -3.7408    2.4361   -0.1353 H   0  0  0  0  0  0  0  0  0  0  0  0
   -3.8610    1.1265   -1.3921 H   0  0  0  0  0  0  0  0  0  0  0  0
   -3.6652    0.6874    1.6802 H   0  0  0  0  0  0  0  0  0  0  0  0
   -3.7894   -0.6201    0.4219 H   0  0  0  0  0  0  0  0  0  0  0  0
    1.4095   -1.8964    1.5048 H   0  0  0  0  0  0  0  0  0  0  0  0
    1.7412   -0.4298    2.4202 H   0  0  0  0  0  0  0  0  0  0  0  0
    3.2459   -1.2649   -0.1414 H   0  0  0  0  0  0  0  0  0  0  0  0
    4.4194    0.7866    0.3763 H   0  0  0  0  0  0  0  0  0  0  0  0
    2.8841    2.3098   -0.4483 H   0  0  0  0  0  0  0  0  0  0  0  0
    1.9551    2.1892    1.0570 H   0  0  0  0  0  0  0  0  0  0  0  0
    1.6473    0.3521   -1.3874 H   0  0  0  0  0  0  0  0  0  0  0  0
  2  1  1  0  0  0  0
  3  2  1  0  0  0  0
  4  3  1  0  0  0  0
  5  4  1  0  0  0  0
  6  5  1  0  0  0  0
  6  4  1  0  0  0  0
  7  2  1  0  0  0  0
  8  7  1  0  0  0  0
  9  8  1  0  0  0  0
 10  9  1  0  0  0  0
 11 10  1  0  0  0  0
 12 11  1  0  0  0  0
 12  9  1  0  0  0  0
 12  7  1  0  0  0  0
  1 13  1  0  0  0  0
  1 14  1  0  0  0  0
  1 15  1  0  0  0  0
  2 16  1  0  0  0  0
  3 17  1  0  0  0  0
  3 18  1  0  0  0  0
  4 19  1  0  0  0  0
  5 20  1  0  0  0  0
  5 21  1  0  0  0  0
  6 22  1  0  0  0  0
  6 23  1  0  0  0  0
  8 24  1  0  0  0  0
  8 25  1  0  0  0  0
  9 26  1  0  0  0  0
 10 27  1  0  0  0  0
 11 28  1  0  0  0  0
 11 29  1  0  0  0  0
 12 30  1  0  0  0  0
M  END
>  <energy>
99.935743515051897

$$$$
