CSc1ncccc1C(O)C1CCC(C(C)OC(=O)C(NC2=C3C4CC(C2)CC3C4)C(C)C)CC1
                    3D

 77 81  0  0  0  0  0  0  0  0999 V2000
    4.1169   -2.8446    2.3320 C   0  0  0  0  0  0  0  0  0  0  0  0
    5.1311   -1.3795    2.0345 S   0  0  0  0  0  0  0  0  0  0  0  0
    4.2039   -0.2311    3.0361 C   0  0  0  0  0  0  0  0  0  0  0  0
    3.8364   -0.7302    4.2459 N   0  0  0  0  0  0  0  0  0  0  0  0
    3.1106    0.0512    5.0642 C   0  0  0  0  0  0  0  0  0  0  0  0
    2.7319    1.3349    4.7403 C   0  0  0  0  0  0  0  0  0  0  0  0
    3.1130    1.8402    3.5008 C   0  0  0  0  0  0  0  0  0  0  0  0
    3.8716    1.0624    2.6104 C   0  0  0  0  0  0  0  0  0  0  0  0
    4.1825    1.6328    1.2408 C   0  0  0  0  0  0  0  0  0  0  0  0
    5.5487    1.4240    0.8974 O   0  0  0  0  0  0  0  0  0  0  0  0
    3.1946    1.0920    0.1656 C   0  0  0  0  0  0  0  0  0  0  0  0
    3.8380    0.2724   -0.9737 C   0  0  0  0  0  0  0  0  0  0  0  0
    2.9702    0.1556   -2.2375 C   0  0  0  0  0  0  0  0  0  0  0  0
    1.4904    0.3352   -1.9186 C   0  0  0  0  0  0  0  0  0  0  0  0
    0.5690   -0.0487   -3.0948 C   0  0  0  0  0  0  0  0  0  0  0  0
    0.5522    0.9216   -4.2740 C   0  0  0  0  0  0  0  0  0  0  0  0
   -0.7435   -0.1902   -2.5117 O   0  0  0  0  0  0  0  0  0  0  0  0
   -1.4558   -1.2762   -2.9210 C   0  0  0  0  0  0  0  0  0  0  0  0
   -1.2812   -1.8320   -4.0000 O   0  0  0  0  0  0  0  0  0  0  0  0
   -2.4568   -1.7882   -1.8560 C   0  0  0  0  0  0  0  0  0  0  0  0
   -2.2418   -1.2309   -0.4916 N   0  0  0  0  0  0  0  0  0  0  0  0
   -3.0626   -0.2295   -0.0238 C   0  0  0  0  0  0  0  0  0  0  0  0
   -2.8673    1.0661   -0.3754 C   0  0  0  0  0  0  0  0  0  0  0  0
   -2.5081    2.0802    0.8240 C   0  0  0  0  0  0  0  0  0  0  0  0
   -3.3359    1.7518    2.0943 C   0  0  0  0  0  0  0  0  0  0  0  0
   -4.5440    0.8892    1.6483 C   0  0  0  0  0  0  0  0  0  0  0  0
   -3.9924   -0.4807    1.1487 C   0  0  0  0  0  0  0  0  0  0  0  0
   -5.2402    1.6301    0.4757 C   0  0  0  0  0  0  0  0  0  0  0  0
   -4.1467    2.0087   -0.5520 C   0  0  0  0  0  0  0  0  0  0  0  0
   -3.1606    3.1081   -0.1114 C   0  0  0  0  0  0  0  0  0  0  0  0
   -2.3890   -3.3486   -1.8132 C   0  0  0  0  0  0  0  0  0  0  0  0
   -3.4705   -3.9736   -0.9188 C   0  0  0  0  0  0  0  0  0  0  0  0
   -1.0003   -3.8661   -1.4095 C   0  0  0  0  0  0  0  0  0  0  0  0
    1.2202    1.7350   -1.3325 C   0  0  0  0  0  0  0  0  0  0  0  0
    2.3277    2.2295   -0.3935 C   0  0  0  0  0  0  0  0  0  0  0  0
    3.0741   -2.6352    2.0806 H   0  0  0  0  0  0  0  0  0  0  0  0
    4.4668   -3.6762    1.7135 H   0  0  0  0  0  0  0  0  0  0  0  0
    4.1861   -3.1427    3.3794 H   0  0  0  0  0  0  0  0  0  0  0  0
    2.8181   -0.4061    6.0085 H   0  0  0  0  0  0  0  0  0  0  0  0
    2.1462    1.9272    5.4259 H   0  0  0  0  0  0  0  0  0  0  0  0
    2.7962    2.8391    3.2144 H   0  0  0  0  0  0  0  0  0  0  0  0
    4.0893    2.7284    1.2986 H   0  0  0  0  0  0  0  0  0  0  0  0
    5.7643    0.4899    1.0794 H   0  0  0  0  0  0  0  0  0  0  0  0
    2.4892    0.4205    0.6762 H   0  0  0  0  0  0  0  0  0  0  0  0
    4.8141    0.6624   -1.2807 H   0  0  0  0  0  0  0  0  0  0  0  0
    4.0209   -0.7403   -0.5923 H   0  0  0  0  0  0  0  0  0  0  0  0
    3.2884    0.8941   -2.9794 H   0  0  0  0  0  0  0  0  0  0  0  0
    3.1512   -0.8307   -2.6856 H   0  0  0  0  0  0  0  0  0  0  0  0
    1.2516   -0.3818   -1.1153 H   0  0  0  0  0  0  0  0  0  0  0  0
    0.9098   -1.0262   -3.4687 H   0  0  0  0  0  0  0  0  0  0  0  0
    0.2526    1.9305   -3.9786 H   0  0  0  0  0  0  0  0  0  0  0  0
   -0.1794    0.6022   -5.0225 H   0  0  0  0  0  0  0  0  0  0  0  0
    1.5331    0.9737   -4.7596 H   0  0  0  0  0  0  0  0  0  0  0  0
   -3.4516   -1.4859   -2.2043 H   0  0  0  0  0  0  0  0  0  0  0  0
   -2.2039   -1.9821    0.1915 H   0  0  0  0  0  0  0  0  0  0  0  0
   -1.4502    2.2739    1.0266 H   0  0  0  0  0  0  0  0  0  0  0  0
   -2.7215    1.2078    2.8209 H   0  0  0  0  0  0  0  0  0  0  0  0
   -3.6806    2.6753    2.5698 H   0  0  0  0  0  0  0  0  0  0  0  0
   -5.2447    0.7278    2.4749 H   0  0  0  0  0  0  0  0  0  0  0  0
   -4.8119   -1.1320    0.8207 H   0  0  0  0  0  0  0  0  0  0  0  0
   -3.4496   -0.9844    1.9616 H   0  0  0  0  0  0  0  0  0  0  0  0
   -5.7445    2.5282    0.8398 H   0  0  0  0  0  0  0  0  0  0  0  0
   -5.9999    0.9934    0.0086 H   0  0  0  0  0  0  0  0  0  0  0  0
   -4.5302    2.1589   -1.5666 H   0  0  0  0  0  0  0  0  0  0  0  0
   -3.6097    3.9714    0.3902 H   0  0  0  0  0  0  0  0  0  0  0  0
   -2.5069    3.4957   -0.9099 H   0  0  0  0  0  0  0  0  0  0  0  0
   -2.5896   -3.7160   -2.8298 H   0  0  0  0  0  0  0  0  0  0  0  0
   -3.3135   -3.7693    0.1471 H   0  0  0  0  0  0  0  0  0  0  0  0
   -3.4823   -5.0655   -1.0356 H   0  0  0  0  0  0  0  0  0  0  0  0
   -4.4696   -3.6098   -1.1910 H   0  0  0  0  0  0  0  0  0  0  0  0
   -0.6939   -3.5023   -0.4211 H   0  0  0  0  0  0  0  0  0  0  0  0
   -0.2334   -3.5634   -2.1314 H   0  0  0  0  0  0  0  0  0  0  0  0
   -0.9815   -4.9618   -1.3734 H   0  0  0  0  0  0  0  0  0  0  0  0
    1.1024    2.4879   -2.1193 H   0  0  0  0  0  0  0  0  0  0  0  0
    0.2636    1.7093   -0.7950 H   0  0  0  0  0  0  0  0  0  0  0  0
    2.9571    2.9405   -0.9372 H   0  0  0  0  0  0  0  0  0  0  0  0
    1.8615    2.8029    0.4187 H   0  0  0  0  0  0  0  0  0  0  0  0
  2  1  1  0  0  0  0
  3  2  1  0  0  0  0
  4  3  2  0  0  0  0
  5  4  1  0  0  0  0
  6  5  2  0  0  0  0
  7  6  1  0  0  0  0
  8  7  2  0  0  0  0
  8  3  1  0  0  0  0
  9  8  1  0  0  0  0
 10  9  1  0  0  0  0
 11  9  1  0  0  0  0
 12 11  1  0  0  0  0
 13 12  1  0  0  0  0
 14 13  1  0  0  0  0
 15 14  1  0  0  0  0
 16 15  1  0  0  0  0
 17 15  1  0  0  0  0
 18 17  1  0  0  0  0
 19 18  2  0  0  0  0
 20 18  1  0  0  0  0
 21 20  1  0  0  0  0
 22 21  1  0  0  0  0
 23 22  2  0  0  0  0
 24 23  1  0  0  0  0
 25 24  1  0  0  0  0
 26 25  1  0  0  0  0
 27 26  1  0  0  0  0
 27 22  1  0  0  0  0
 28 26  1  0  0  0  0
 29 28  1  0  0  0  0
 29 23  1  0  0  0  0
 30 29  1  0  0  0  0
 30 24  1  0  0  0  0
 31 20  1  0  0  0  0
 32 31  1  0  0  0  0
 33 31  1  0  0  0  0
 34 14  1  0  0  0  0
 35 34  1  0  0  0  0
 35 11  1  0  0  0  0
  1 36  1  0  0  0  0
  1 37  1  0  0  0  0
  1 38  1  0  0  0  0
  5 39  1  0  0  0  0
  6 40  1  0  0  0  0
  7 41  1  0  0  0  0
  9 42  1  0  0  0  0
 10 43  1  0  0  0  0
 11 44  1  0  0  0  0
 12 45  1  0  0  0  0
 12 46  1  0  0  0  0
 13 47  1  0  0  0  0
 13 48  1  0  0  0  0
 14 49  1  0  0  0  0
 15 50  1  0  0  0  0
 16 51  1  0  0  0  0
 16 52  1  0  0  0  0
 16 53  1  0  0  0  0
 20 54  1  0  0  0  0
 21 55  1  0  0  0  0
 24 56  1  0  0  0  0
 25 57  1  0  0  0  0
 25 58  1  0  0  0  0
 26 59  1  0  0  0  0
 27 60  1  0  0  0  0
 27 61  1  0  0  0  0
 28 62  1  0  0  0  0
 28 63  1  0  0  0  0
 29 64  1  0  0  0  0
 30 65  1  0  0  0  0
 30 66  1  0  0  0  0
 31 67  1  0  0  0  0
 32 68  1  0  0  0  0
 32 69  1  0  0  0  0
 32 70  1  0  0  0  0
 33 71  1  0  0  0  0
 33 72  1  0  0  0  0
 33 73  1  0  0  0  0
 34 74  1  0  0  0  0
 34 75  1  0  0  0  0
 35 76  1  0  0  0  0
 35 77  1  0  0  0  0
M  END
>  <energy>
159.49972369261323

$$$$
