C=C1C2OC3C(C(=O)NC(CBr)C(=O)N=c4nc(C5(F)CCC5)[nH]cc4Cl)C1C23C(=O)OC
                    3D

 54 58  0  0  0  0  0  0  0  0999 V2000
    2.1570    1.3448    3.2421 C   0  0  0  0  0  0  0  0  0  0  0  0
    2.2579    1.7178    1.9654 C   0  0  0  0  0  0  0  0  0  0  0  0
    3.2205    2.6014    1.1972 C   0  0  0  0  0  0  0  0  0  0  0  0
    4.2164    1.8701    0.4399 O   0  0  0  0  0  0  0  0  0  0  0  0
    3.2207    1.5157   -0.5543 C   0  0  0  0  0  0  0  0  0  0  0  0
    2.1826    0.4046   -0.2995 C   0  0  0  0  0  0  0  0  0  0  0  0
    2.5734   -1.0053    0.1902 C   0  0  0  0  0  0  0  0  0  0  0  0
    3.2926   -1.2807    1.1429 O   0  0  0  0  0  0  0  0  0  0  0  0
    1.8879   -1.9751   -0.4998 N   0  0  0  0  0  0  0  0  0  0  0  0
    1.4717   -3.2623    0.0796 C   0  0  0  0  0  0  0  0  0  0  0  0
    0.9493   -3.1465    1.5172 C   0  0  0  0  0  0  0  0  0  0  0  0
    2.0611   -4.1689    2.7501 Br  0  0  0  0  0  0  0  0  0  0  0  0
    0.3138   -3.8522   -0.7743 C   0  0  0  0  0  0  0  0  0  0  0  0
   -0.2670   -4.8823   -0.4421 O   0  0  0  0  0  0  0  0  0  0  0  0
    0.0239   -3.2008   -1.9593 N   0  0  0  0  0  0  0  0  0  0  0  0
   -0.8232   -2.2241   -1.9175 C   0  0  0  0  0  0  0  0  0  0  0  0
   -1.2896   -1.7518   -0.6974 N   0  0  0  0  0  0  0  0  0  0  0  0
   -2.0788   -0.7202   -0.6938 C   0  0  0  0  0  0  0  0  0  0  0  0
   -2.6599   -0.1178    0.6500 C   0  0  0  0  0  0  0  0  0  0  0  0
   -2.1301    1.1270    0.7947 F   0  0  0  0  0  0  0  0  0  0  0  0
   -4.2152   -0.1603    0.7783 C   0  0  0  0  0  0  0  0  0  0  0  0
   -4.0275   -0.4309    2.2786 C   0  0  0  0  0  0  0  0  0  0  0  0
   -2.6335   -0.9923    1.9392 C   0  0  0  0  0  0  0  0  0  0  0  0
   -2.4882   -0.0489   -1.8189 N   0  0  0  0  0  0  0  0  0  0  0  0
   -2.0566   -0.4551   -3.0497 C   0  0  0  0  0  0  0  0  0  0  0  0
   -1.2483   -1.5134   -3.1751 C   0  0  0  0  0  0  0  0  0  0  0  0
   -0.6693   -2.0400   -4.6960 Cl  0  0  0  0  0  0  0  0  0  0  0  0
    1.4805    1.3342    0.7211 C   0  0  0  0  0  0  0  0  0  0  0  0
    2.2268    2.4899    0.0678 C   0  0  0  0  0  0  0  0  0  0  0  0
    1.5112    3.5702   -0.6862 C   0  0  0  0  0  0  0  0  0  0  0  0
    1.4548    4.7543   -0.3745 O   0  0  0  0  0  0  0  0  0  0  0  0
    0.8524    3.0350   -1.7620 O   0  0  0  0  0  0  0  0  0  0  0  0
    0.0194    3.9166   -2.5194 C   0  0  0  0  0  0  0  0  0  0  0  0
    1.3867    0.6486    3.5525 H   0  0  0  0  0  0  0  0  0  0  0  0
    2.8633    1.7008    3.9830 H   0  0  0  0  0  0  0  0  0  0  0  0
    3.5180    3.5842    1.5615 H   0  0  0  0  0  0  0  0  0  0  0  0
    3.5553    1.6955   -1.5768 H   0  0  0  0  0  0  0  0  0  0  0  0
    1.5395    0.3226   -1.1987 H   0  0  0  0  0  0  0  0  0  0  0  0
    1.4585   -1.7390   -1.3874 H   0  0  0  0  0  0  0  0  0  0  0  0
    2.3316   -3.9341   -0.0217 H   0  0  0  0  0  0  0  0  0  0  0  0
   -0.0573   -3.5451    1.6606 H   0  0  0  0  0  0  0  0  0  0  0  0
    0.9546   -2.1272    1.9124 H   0  0  0  0  0  0  0  0  0  0  0  0
   -4.7384    0.7683    0.5316 H   0  0  0  0  0  0  0  0  0  0  0  0
   -4.6779   -0.9894    0.2303 H   0  0  0  0  0  0  0  0  0  0  0  0
   -4.0067    0.4796    2.8886 H   0  0  0  0  0  0  0  0  0  0  0  0
   -4.7349   -1.1393    2.7174 H   0  0  0  0  0  0  0  0  0  0  0  0
   -1.8520   -0.7534    2.6640 H   0  0  0  0  0  0  0  0  0  0  0  0
   -2.6326   -2.0712    1.7587 H   0  0  0  0  0  0  0  0  0  0  0  0
   -3.0751    0.7758   -1.7476 H   0  0  0  0  0  0  0  0  0  0  0  0
   -2.4053    0.1266   -3.8961 H   0  0  0  0  0  0  0  0  0  0  0  0
    0.3921    1.3767    0.7418 H   0  0  0  0  0  0  0  0  0  0  0  0
    0.3440    4.9604   -2.4659 H   0  0  0  0  0  0  0  0  0  0  0  0
   -1.0176    3.8145   -2.1807 H   0  0  0  0  0  0  0  0  0  0  0  0
    0.0677    3.5922   -3.5620 H   0  0  0  0  0  0  0  0  0  0  0  0
  2  1  2  0  0  0  0
  3  2  1  0  0  0  0
  4  3  1  0  0  0  0
  5  4  1  0  0  0  0
  6  5  1  0  0  0  0
  7  6  1  0  0  0  0
  8  7  2  0  0  0  0
  9  7  1  0  0  0  0
 10  9  1  0  0  0  0
 11 10  1  0  0  0  0
 12 11  1  0  0  0  0
 13 10  1  0  0  0  0
 14 13  2  0  0  0  0
 15 13  1  0  0  0  0
 16 15  2  0  0  0  0
 17 16  1  0  0  0  0
 18 17  2  0  0  0  0
 19 18  1  0  0  0  0
 20 19  1  0  0  0  0
 21 19  1  0  0  0  0
 22 21  1  0  0  0  0
 23 22  1  0  0  0  0
 23 19  1  0  0  0  0
 24 18  1  0  0  0  0
 25 24  1  0  0  0  0
 26 25  2  0  0  0  0
 26 16  1  0  0  0  0
 27 26  1  0  0  0  0
 28  6  1  0  0  0  0
 28  2  1  0  0  0  0
 29 28  1  0  0  0  0
 29  3  1  0  0  0  0
 29  5  1  0  0  0  0
 30 29  1  0  0  0  0
 31 30  2  0  0  0  0
 32 30  1  0  0  0  0
 33 32  1  0  0  0  0
  1 34  1  0  0  0  0
  1 35  1  0  0  0  0
  3 36  1  0  0  0  0
  5 37  1  0  0  0  0
  6 38  1  0  0  0  0
  9 39  1  0  0  0  0
 10 40  1  0  0  0  0
 11 41  1  0  0  0  0
 11 42  1  0  0  0  0
 21 43  1  0  0  0  0
 21 44  1  0  0  0  0
 22 45  1  0  0  0  0
 22 46  1  0  0  0  0
 23 47  1  0  0  0  0
 23 48  1  0  0  0  0
 24 49  1  0  0  0  0
 25 50  1  0  0  0  0
 28 51  1  0  0  0  0
 33 52  1  0  0  0  0
 33 53  1  0  0  0  0
 33 54  1  0  0  0  0
M  END
>  <energy>
27.169308836180733

$$$$
