C=CC1C(OCc2ccccc2)C2OC3(C(O)C2C3CCC2CCCN2)C1(O)C(C)C
                    3D

 68 72  0  0  0  0  0  0  0  0999 V2000
    3.8776    1.4687   -2.6320 C   0  0  0  0  0  0  0  0  0  0  0  0
    2.6421    1.3178   -2.1408 C   0  0  0  0  0  0  0  0  0  0  0  0
    2.3296    1.1092   -0.6707 C   0  0  0  0  0  0  0  0  0  0  0  0
    1.9063   -0.4743   -0.4258 C   0  0  0  0  0  0  0  0  0  0  0  0
    3.1531   -1.1841   -0.2282 O   0  0  0  0  0  0  0  0  0  0  0  0
    3.3324   -2.3021   -1.0926 C   0  0  0  0  0  0  0  0  0  0  0  0
    2.9087   -3.5707   -0.4014 C   0  0  0  0  0  0  0  0  0  0  0  0
    3.6421   -4.0399    0.6994 C   0  0  0  0  0  0  0  0  0  0  0  0
    3.2900   -5.2326    1.3311 C   0  0  0  0  0  0  0  0  0  0  0  0
    2.1963   -5.9653    0.8734 C   0  0  0  0  0  0  0  0  0  0  0  0
    1.4481   -5.4991   -0.2080 C   0  0  0  0  0  0  0  0  0  0  0  0
    1.8014   -4.3053   -0.8437 C   0  0  0  0  0  0  0  0  0  0  0  0
    1.0224   -0.6663    0.8614 C   0  0  0  0  0  0  0  0  0  0  0  0
    1.3588    0.5331    1.5073 O   0  0  0  0  0  0  0  0  0  0  0  0
    0.3876    1.4256    0.8493 C   0  0  0  0  0  0  0  0  0  0  0  0
   -0.8538    0.9215    1.7250 C   0  0  0  0  0  0  0  0  0  0  0  0
   -2.1193    1.5925    1.6899 O   0  0  0  0  0  0  0  0  0  0  0  0
   -0.5380   -0.3841    0.7607 C   0  0  0  0  0  0  0  0  0  0  0  0
   -0.6019    0.6561   -0.3521 C   0  0  0  0  0  0  0  0  0  0  0  0
   -1.8614    1.2460   -1.0277 C   0  0  0  0  0  0  0  0  0  0  0  0
   -2.8787    0.1599   -1.4114 C   0  0  0  0  0  0  0  0  0  0  0  0
   -3.9942   -0.0415   -0.3822 C   0  0  0  0  0  0  0  0  0  0  0  0
   -4.9113    1.1641   -0.2109 C   0  0  0  0  0  0  0  0  0  0  0  0
   -6.2120    0.5718    0.3155 C   0  0  0  0  0  0  0  0  0  0  0  0
   -6.1258   -0.9169    0.0090 C   0  0  0  0  0  0  0  0  0  0  0  0
   -4.9396   -1.0702   -0.8296 N   0  0  0  0  0  0  0  0  0  0  0  0
    1.2986    2.2499   -0.0445 C   0  0  0  0  0  0  0  0  0  0  0  0
    0.5753    2.8740   -1.1246 O   0  0  0  0  0  0  0  0  0  0  0  0
    2.0318    3.3969    0.7285 C   0  0  0  0  0  0  0  0  0  0  0  0
    2.8724    2.9721    1.9395 C   0  0  0  0  0  0  0  0  0  0  0  0
    1.0611    4.4947    1.2075 C   0  0  0  0  0  0  0  0  0  0  0  0
    4.0415    1.5948   -3.6969 H   0  0  0  0  0  0  0  0  0  0  0  0
    4.7501    1.4556   -1.9875 H   0  0  0  0  0  0  0  0  0  0  0  0
    1.7954    1.3372   -2.8246 H   0  0  0  0  0  0  0  0  0  0  0  0
    3.2768    1.2244   -0.1281 H   0  0  0  0  0  0  0  0  0  0  0  0
    1.4058   -0.8919   -1.3064 H   0  0  0  0  0  0  0  0  0  0  0  0
    2.8302   -2.1633   -2.0558 H   0  0  0  0  0  0  0  0  0  0  0  0
    4.4033   -2.3755   -1.3192 H   0  0  0  0  0  0  0  0  0  0  0  0
    4.4973   -3.4726    1.0630 H   0  0  0  0  0  0  0  0  0  0  0  0
    3.8718   -5.5903    2.1784 H   0  0  0  0  0  0  0  0  0  0  0  0
    1.9296   -6.9013    1.3580 H   0  0  0  0  0  0  0  0  0  0  0  0
    0.5934   -6.0716   -0.5593 H   0  0  0  0  0  0  0  0  0  0  0  0
    1.2136   -3.9637   -1.6913 H   0  0  0  0  0  0  0  0  0  0  0  0
    1.2651   -1.5335    1.4799 H   0  0  0  0  0  0  0  0  0  0  0  0
   -0.5972    0.7308    2.7760 H   0  0  0  0  0  0  0  0  0  0  0  0
   -2.6863    1.0940    2.3043 H   0  0  0  0  0  0  0  0  0  0  0  0
   -1.2205   -1.2296    0.7416 H   0  0  0  0  0  0  0  0  0  0  0  0
   -0.0972    0.3031   -1.2558 H   0  0  0  0  0  0  0  0  0  0  0  0
   -1.5378    1.7135   -1.9704 H   0  0  0  0  0  0  0  0  0  0  0  0
   -2.3145    2.0682   -0.4717 H   0  0  0  0  0  0  0  0  0  0  0  0
   -3.3354    0.4420   -2.3695 H   0  0  0  0  0  0  0  0  0  0  0  0
   -2.3630   -0.7923   -1.5907 H   0  0  0  0  0  0  0  0  0  0  0  0
   -3.5727   -0.3405    0.5850 H   0  0  0  0  0  0  0  0  0  0  0  0
   -5.0960    1.6598   -1.1717 H   0  0  0  0  0  0  0  0  0  0  0  0
   -4.5076    1.9118    0.4766 H   0  0  0  0  0  0  0  0  0  0  0  0
   -7.0741    1.0407   -0.1711 H   0  0  0  0  0  0  0  0  0  0  0  0
   -6.3044    0.7328    1.3953 H   0  0  0  0  0  0  0  0  0  0  0  0
   -7.0224   -1.2794   -0.5040 H   0  0  0  0  0  0  0  0  0  0  0  0
   -6.0115   -1.4873    0.9379 H   0  0  0  0  0  0  0  0  0  0  0  0
   -4.5443   -2.0030   -0.7376 H   0  0  0  0  0  0  0  0  0  0  0  0
   -0.1374    3.4163   -0.7472 H   0  0  0  0  0  0  0  0  0  0  0  0
    2.7128    3.8781    0.0120 H   0  0  0  0  0  0  0  0  0  0  0  0
    3.5952    2.1898    1.6994 H   0  0  0  0  0  0  0  0  0  0  0  0
    3.4452    3.8285    2.3156 H   0  0  0  0  0  0  0  0  0  0  0  0
    2.2398    2.6248    2.7638 H   0  0  0  0  0  0  0  0  0  0  0  0
    0.2790    4.0777    1.8506 H   0  0  0  0  0  0  0  0  0  0  0  0
    0.5828    5.0087    0.3684 H   0  0  0  0  0  0  0  0  0  0  0  0
    1.5939    5.2615    1.7809 H   0  0  0  0  0  0  0  0  0  0  0  0
  2  1  2  0  0  0  0
  3  2  1  0  0  0  0
  4  3  1  0  0  0  0
  5  4  1  0  0  0  0
  6  5  1  0  0  0  0
  7  6  1  0  0  0  0
  8  7  2  0  0  0  0
  9  8  1  0  0  0  0
 10  9  2  0  0  0  0
 11 10  1  0  0  0  0
 12 11  2  0  0  0  0
 12  7  1  0  0  0  0
 13  4  1  0  0  0  0
 14 13  1  0  0  0  0
 15 14  1  0  0  0  0
 16 15  1  0  0  0  0
 17 16  1  0  0  0  0
 18 16  1  0  0  0  0
 18 13  1  0  0  0  0
 19 18  1  0  0  0  0
 19 15  1  0  0  0  0
 20 19  1  0  0  0  0
 21 20  1  0  0  0  0
 22 21  1  0  0  0  0
 23 22  1  0  0  0  0
 24 23  1  0  0  0  0
 25 24  1  0  0  0  0
 26 25  1  0  0  0  0
 26 22  1  0  0  0  0
 27 15  1  0  0  0  0
 27  3  1  0  0  0  0
 28 27  1  0  0  0  0
 29 27  1  0  0  0  0
 30 29  1  0  0  0  0
 31 29  1  0  0  0  0
  1 32  1  0  0  0  0
  1 33  1  0  0  0  0
  2 34  1  0  0  0  0
  3 35  1  0  0  0  0
  4 36  1  0  0  0  0
  6 37  1  0  0  0  0
  6 38  1  0  0  0  0
  8 39  1  0  0  0  0
  9 40  1  0  0  0  0
 10 41  1  0  0  0  0
 11 42  1  0  0  0  0
 12 43  1  0  0  0  0
 13 44  1  0  0  0  0
 16 45  1  0  0  0  0
 17 46  1  0  0  0  0
 18 47  1  0  0  0  0
 19 48  1  0  0  0  0
 20 49  1  0  0  0  0
 20 50  1  0  0  0  0
 21 51  1  0  0  0  0
 21 52  1  0  0  0  0
 22 53  1  0  0  0  0
 23 54  1  0  0  0  0
 23 55  1  0  0  0  0
 24 56  1  0  0  0  0
 24 57  1  0  0  0  0
 25 58  1  0  0  0  0
 25 59  1  0  0  0  0
 26 60  1  0  0  0  0
 28 61  1  0  0  0  0
 29 62  1  0  0  0  0
 30 63  1  0  0  0  0
 30 64  1  0  0  0  0
 30 65  1  0  0  0  0
 31 66  1  0  0  0  0
 31 67  1  0  0  0  0
 31 68  1  0  0  0  0
M  END
>  <energy>
255.02737891976517

$$$$
