CCCCC1CC(C)C23CC(C2)C2C(O)(C3)CC23CCCC1C3
                    3D

 59 63  0  0  0  0  0  0  0  0999 V2000
   -5.2785    1.6039   -1.1976 C   0  0  0  0  0  0  0  0  0  0  0  0
   -3.8533    1.7947   -0.7031 C   0  0  0  0  0  0  0  0  0  0  0  0
   -3.7205    1.4803    0.7906 C   0  0  0  0  0  0  0  0  0  0  0  0
   -2.2873    1.6891    1.3047 C   0  0  0  0  0  0  0  0  0  0  0  0
   -1.3041    0.6184    0.7702 C   0  0  0  0  0  0  0  0  0  0  0  0
   -0.8538   -0.3381    1.9645 C   0  0  0  0  0  0  0  0  0  0  0  0
   -0.1146   -1.7290    1.7776 C   0  0  0  0  0  0  0  0  0  0  0  0
   -1.1115   -2.7846    1.3017 C   0  0  0  0  0  0  0  0  0  0  0  0
    1.2357   -1.7181    0.9901 C   0  0  0  0  0  0  0  0  0  0  0  0
    2.1021   -0.4449    1.6074 C   0  0  0  0  0  0  0  0  0  0  0  0
    3.2625   -1.0868    0.9227 C   0  0  0  0  0  0  0  0  0  0  0  0
    2.5965   -2.4171    1.4509 C   0  0  0  0  0  0  0  0  0  0  0  0
    3.1098   -0.7702   -0.6038 C   0  0  0  0  0  0  0  0  0  0  0  0
    2.3260   -1.9095   -1.2815 C   0  0  0  0  0  0  0  0  0  0  0  0
    3.1333   -3.0053   -1.7656 O   0  0  0  0  0  0  0  0  0  0  0  0
    1.1726   -2.4575   -0.4150 C   0  0  0  0  0  0  0  0  0  0  0  0
    1.9992   -0.8399   -2.3900 C   0  0  0  0  0  0  0  0  0  0  0  0
    1.9010    0.2362   -1.2364 C   0  0  0  0  0  0  0  0  0  0  0  0
    2.3243    1.6594   -1.6722 C   0  0  0  0  0  0  0  0  0  0  0  0
    1.6608    2.7895   -0.8330 C   0  0  0  0  0  0  0  0  0  0  0  0
    0.1387    2.6296   -0.5066 C   0  0  0  0  0  0  0  0  0  0  0  0
   -0.0506    1.2349    0.0904 C   0  0  0  0  0  0  0  0  0  0  0  0
    0.3716    0.3063   -1.0300 C   0  0  0  0  0  0  0  0  0  0  0  0
   -5.3449    1.8566   -2.2611 H   0  0  0  0  0  0  0  0  0  0  0  0
   -5.9759    2.2476   -0.6537 H   0  0  0  0  0  0  0  0  0  0  0  0
   -5.6018    0.5647   -1.0757 H   0  0  0  0  0  0  0  0  0  0  0  0
   -3.1898    1.1551   -1.2948 H   0  0  0  0  0  0  0  0  0  0  0  0
   -3.5465    2.8306   -0.8891 H   0  0  0  0  0  0  0  0  0  0  0  0
   -4.3937    2.1393    1.3543 H   0  0  0  0  0  0  0  0  0  0  0  0
   -4.0434    0.4520    0.9943 H   0  0  0  0  0  0  0  0  0  0  0  0
   -1.9805    2.7039    1.0388 H   0  0  0  0  0  0  0  0  0  0  0  0
   -2.3144    1.6686    2.4011 H   0  0  0  0  0  0  0  0  0  0  0  0
   -1.8479   -0.0151    0.0598 H   0  0  0  0  0  0  0  0  0  0  0  0
   -0.2493    0.2666    2.6550 H   0  0  0  0  0  0  0  0  0  0  0  0
   -1.7658   -0.5644    2.5373 H   0  0  0  0  0  0  0  0  0  0  0  0
    0.1483   -2.0323    2.8025 H   0  0  0  0  0  0  0  0  0  0  0  0
   -1.5558   -2.5228    0.3372 H   0  0  0  0  0  0  0  0  0  0  0  0
   -1.9338   -2.8806    2.0197 H   0  0  0  0  0  0  0  0  0  0  0  0
   -0.6406   -3.7685    1.2164 H   0  0  0  0  0  0  0  0  0  0  0  0
    2.1022    0.5924    1.3182 H   0  0  0  0  0  0  0  0  0  0  0  0
    2.1534   -0.4252    2.7074 H   0  0  0  0  0  0  0  0  0  0  0  0
    4.2469   -0.8593    1.3382 H   0  0  0  0  0  0  0  0  0  0  0  0
    2.9529   -3.3386    0.9780 H   0  0  0  0  0  0  0  0  0  0  0  0
    2.6897   -2.5869    2.5352 H   0  0  0  0  0  0  0  0  0  0  0  0
    4.0931   -0.5810   -1.0602 H   0  0  0  0  0  0  0  0  0  0  0  0
    2.5513   -3.4970   -2.3707 H   0  0  0  0  0  0  0  0  0  0  0  0
    0.2174   -2.4047   -0.9406 H   0  0  0  0  0  0  0  0  0  0  0  0
    1.2838   -3.5410   -0.2614 H   0  0  0  0  0  0  0  0  0  0  0  0
    2.8196   -0.6678   -3.1019 H   0  0  0  0  0  0  0  0  0  0  0  0
    1.1039   -1.0456   -2.9874 H   0  0  0  0  0  0  0  0  0  0  0  0
    3.4142    1.7667   -1.6282 H   0  0  0  0  0  0  0  0  0  0  0  0
    2.0357    1.8151   -2.7199 H   0  0  0  0  0  0  0  0  0  0  0  0
    2.2014    2.8579    0.1196 H   0  0  0  0  0  0  0  0  0  0  0  0
    1.8141    3.7479   -1.3436 H   0  0  0  0  0  0  0  0  0  0  0  0
   -0.1409    3.4140    0.2034 H   0  0  0  0  0  0  0  0  0  0  0  0
   -0.4671    2.7764   -1.4078 H   0  0  0  0  0  0  0  0  0  0  0  0
    0.6192    1.3120    0.9271 H   0  0  0  0  0  0  0  0  0  0  0  0
   -0.1246   -0.6413   -0.9180 H   0  0  0  0  0  0  0  0  0  0  0  0
   -0.0906    0.6635   -1.9656 H   0  0  0  0  0  0  0  0  0  0  0  0
  2  1  1  0  0  0  0
  3  2  1  0  0  0  0
  4  3  1  0  0  0  0
  5  4  1  0  0  0  0
  6  5  1  0  0  0  0
  7  6  1  0  0  0  0
  8  7  1  0  0  0  0
  9  7  1  0  0  0  0
 10  9  1  0  0  0  0
 11 10  1  0  0  0  0
 12 11  1  0  0  0  0
 12  9  1  0  0  0  0
 13 11  1  0  0  0  0
 14 13  1  0  0  0  0
 15 14  1  0  0  0  0
 16 14  1  0  0  0  0
 16  9  1  0  0  0  0
 17 14  1  0  0  0  0
 18 17  1  0  0  0  0
 18 13  1  0  0  0  0
 19 18  1  0  0  0  0
 20 19  1  0  0  0  0
 21 20  1  0  0  0  0
 22 21  1  0  0  0  0
 22  5  1  0  0  0  0
 23 22  1  0  0  0  0
 23 18  1  0  0  0  0
  1 24  1  0  0  0  0
  1 25  1  0  0  0  0
  1 26  1  0  0  0  0
  2 27  1  0  0  0  0
  2 28  1  0  0  0  0
  3 29  1  0  0  0  0
  3 30  1  0  0  0  0
  4 31  1  0  0  0  0
  4 32  1  0  0  0  0
  5 33  1  0  0  0  0
  6 34  1  0  0  0  0
  6 35  1  0  0  0  0
  7 36  1  0  0  0  0
  8 37  1  0  0  0  0
  8 38  1  0  0  0  0
  8 39  1  0  0  0  0
 10 40  1  0  0  0  0
 10 41  1  0  0  0  0
 11 42  1  0  0  0  0
 12 43  1  0  0  0  0
 12 44  1  0  0  0  0
 13 45  1  0  0  0  0
 15 46  1  0  0  0  0
 16 47  1  0  0  0  0
 16 48  1  0  0  0  0
 17 49  1  0  0  0  0
 17 50  1  0  0  0  0
 19 51  1  0  0  0  0
 19 52  1  0  0  0  0
 20 53  1  0  0  0  0
 20 54  1  0  0  0  0
 21 55  1  0  0  0  0
 21 56  1  0  0  0  0
 22 57  1  0  0  0  0
 23 58  1  0  0  0  0
 23 59  1  0  0  0  0
M  END
>  <energy>
174.37921410454311

$$$$
