N=C1C=CC(=C[n+]2ccc3ccc4cccc5c3c4ccc52)S1
                    3D

 36 40  0  0  0  0  0  0  0  0999 V2000
   -6.6209    1.6398   -0.7258 N   0  0  0  0  0  0  0  0  0  0  0  0
   -5.5755    0.9568   -0.4509 C   0  0  0  0  0  0  0  0  0  0  0  0
   -5.5195   -0.4836   -0.1842 C   0  0  0  0  0  0  0  0  0  0  0  0
   -4.2568   -0.9107   -0.0693 C   0  0  0  0  0  0  0  0  0  0  0  0
   -3.2458    0.1172   -0.1581 C   0  0  0  0  0  0  0  0  0  0  0  0
   -1.9373   -0.1370   -0.0491 C   0  0  0  0  0  0  0  0  0  0  0  0
   -0.8586    0.8058    0.0483 N   0  3  0  0  0  0  0  0  0  0  0  0
   -0.5077    1.0637    1.4683 C   0  0  0  0  0  0  0  0  0  0  0  0
    0.5880    0.7254    2.2151 C   0  0  0  0  0  0  0  0  0  0  0  0
    1.8532    0.1479    1.7265 C   0  0  0  0  0  0  0  0  0  0  0  0
    3.0995   -0.0788    2.2970 C   0  0  0  0  0  0  0  0  0  0  0  0
    4.1530   -0.4709    1.3956 C   0  0  0  0  0  0  0  0  0  0  0  0
    3.9535   -0.3045   -0.0128 C   0  0  0  0  0  0  0  0  0  0  0  0
    3.9149   -1.5925   -0.8375 C   0  0  0  0  0  0  0  0  0  0  0  0
    2.7818   -2.1294   -1.3841 C   0  0  0  0  0  0  0  0  0  0  0  0
    1.4022   -1.5433   -1.4158 C   0  0  0  0  0  0  0  0  0  0  0  0
    0.9496   -0.6423   -0.5109 C   0  0  0  0  0  0  0  0  0  0  0  0
    1.9175   -0.1518    0.4176 C   0  0  0  0  0  0  0  0  0  0  0  0
    2.8959    0.5025   -0.2481 C   0  0  0  0  0  0  0  0  0  0  0  0
    2.3886    1.4156   -1.3193 C   0  0  0  0  0  0  0  0  0  0  0  0
    1.0329    1.5682   -1.4746 C   0  0  0  0  0  0  0  0  0  0  0  0
    0.1208    0.5489   -0.7677 C   0  0  0  0  0  0  0  0  0  0  0  0
   -3.9798    1.6720   -0.3827 S   0  0  0  0  0  0  0  0  0  0  0  0
   -6.3578    2.6147   -0.8987 H   0  0  0  0  0  0  0  0  0  0  0  0
   -6.4070   -1.0919   -0.1339 H   0  0  0  0  0  0  0  0  0  0  0  0
   -4.0210   -1.9546    0.1140 H   0  0  0  0  0  0  0  0  0  0  0  0
   -1.6426   -1.1847    0.0627 H   0  0  0  0  0  0  0  0  0  0  0  0
   -1.3234    1.5429    2.0177 H   0  0  0  0  0  0  0  0  0  0  0  0
    0.5945    0.9783    3.2753 H   0  0  0  0  0  0  0  0  0  0  0  0
    3.2686   -0.0600    3.3676 H   0  0  0  0  0  0  0  0  0  0  0  0
    5.0368   -0.9757    1.7701 H   0  0  0  0  0  0  0  0  0  0  0  0
    4.8661   -2.1198   -0.9036 H   0  0  0  0  0  0  0  0  0  0  0  0
    2.8729   -3.0716   -1.9273 H   0  0  0  0  0  0  0  0  0  0  0  0
    0.8552   -1.7111   -2.3394 H   0  0  0  0  0  0  0  0  0  0  0  0
    3.1217    2.0110   -1.8560 H   0  0  0  0  0  0  0  0  0  0  0  0
    0.5867    2.3038   -2.1261 H   0  0  0  0  0  0  0  0  0  0  0  0
  2  1  2  0  0  0  0
  3  2  1  0  0  0  0
  4  3  2  0  0  0  0
  5  4  1  0  0  0  0
  6  5  2  0  0  0  0
  7  6  1  0  0  0  0
  8  7  1  0  0  0  0
  9  8  2  0  0  0  0
 10  9  1  0  0  0  0
 11 10  2  0  0  0  0
 12 11  1  0  0  0  0
 13 12  2  0  0  0  0
 14 13  1  0  0  0  0
 15 14  2  0  0  0  0
 16 15  1  0  0  0  0
 17 16  2  0  0  0  0
 18 17  1  0  0  0  0
 18 10  1  0  0  0  0
 19 18  2  0  0  0  0
 19 13  1  0  0  0  0
 20 19  1  0  0  0  0
 21 20  2  0  0  0  0
 22 21  1  0  0  0  0
 22 17  1  0  0  0  0
 22  7  2  0  0  0  0
 23  5  1  0  0  0  0
 23  2  1  0  0  0  0
  1 24  1  0  0  0  0
  3 25  1  0  0  0  0
  4 26  1  0  0  0  0
  6 27  1  0  0  0  0
  8 28  1  0  0  0  0
  9 29  1  0  0  0  0
 11 30  1  0  0  0  0
 12 31  1  0  0  0  0
 14 32  1  0  0  0  0
 15 33  1  0  0  0  0
 16 34  1  0  0  0  0
 20 35  1  0  0  0  0
 21 36  1  0  0  0  0
M  CHG  1   7   1
M  END
>  <energy>
314.50395105825311

$$$$
