CN(C)C1C2CCN3CN(C)C14C3C1C(C3CC2C31C)C1CCC14O
                    3D

 58 64  0  0  0  0  0  0  0  0999 V2000
    0.0431    2.0055    2.9201 C   0  0  0  0  0  0  0  0  0  0  0  0
   -0.1904    2.1251    1.4686 N   0  0  0  0  0  0  0  0  0  0  0  0
   -1.3560    2.9846    1.2771 C   0  0  0  0  0  0  0  0  0  0  0  0
   -0.2321    0.7642    0.8004 C   0  0  0  0  0  0  0  0  0  0  0  0
   -1.6289    0.0204    0.8037 C   0  0  0  0  0  0  0  0  0  0  0  0
   -2.6109    0.4559   -0.3024 C   0  0  0  0  0  0  0  0  0  0  0  0
   -2.2673    0.1220   -1.7530 C   0  0  0  0  0  0  0  0  0  0  0  0
   -0.9279    0.3697   -2.2427 N   0  0  0  0  0  0  0  0  0  0  0  0
   -0.5088    1.7824   -2.2089 C   0  0  0  0  0  0  0  0  0  0  0  0
    0.7662    1.8060   -1.4949 N   0  0  0  0  0  0  0  0  0  0  0  0
    1.2296    3.1031   -1.0781 C   0  0  0  0  0  0  0  0  0  0  0  0
    0.7370    0.6747   -0.5553 C   0  0  0  0  0  0  0  0  0  0  0  0
    0.1651   -0.3175   -1.5676 C   0  0  0  0  0  0  0  0  0  0  0  0
    0.0176   -1.7101   -0.9886 C   0  0  0  0  0  0  0  0  0  0  0  0
    1.0357   -1.9209    0.2866 C   0  0  0  0  0  0  0  0  0  0  0  0
    0.0744   -2.9961    0.6966 C   0  0  0  0  0  0  0  0  0  0  0  0
   -0.7857   -2.4684    1.9091 C   0  0  0  0  0  0  0  0  0  0  0  0
   -1.6254   -1.5566    0.9282 C   0  0  0  0  0  0  0  0  0  0  0  0
   -1.0584   -2.4276   -0.2058 C   0  0  0  0  0  0  0  0  0  0  0  0
   -1.9421   -3.4684   -0.8575 C   0  0  0  0  0  0  0  0  0  0  0  0
    2.2815   -1.5907   -0.4607 C   0  0  0  0  0  0  0  0  0  0  0  0
    3.7243   -1.3738   -0.0647 C   0  0  0  0  0  0  0  0  0  0  0  0
    3.5914    0.0026   -0.9007 C   0  0  0  0  0  0  0  0  0  0  0  0
    2.1946    0.1310   -0.1809 C   0  0  0  0  0  0  0  0  0  0  0  0
    2.4833    0.5904    1.1870 O   0  0  0  0  0  0  0  0  0  0  0  0
    0.9817    1.4850    3.1353 H   0  0  0  0  0  0  0  0  0  0  0  0
   -0.7709    1.4733    3.4248 H   0  0  0  0  0  0  0  0  0  0  0  0
    0.1410    2.9971    3.3773 H   0  0  0  0  0  0  0  0  0  0  0  0
   -1.5595    3.1753    0.2242 H   0  0  0  0  0  0  0  0  0  0  0  0
   -1.1656    3.9735    1.7124 H   0  0  0  0  0  0  0  0  0  0  0  0
   -2.2613    2.5935    1.7527 H   0  0  0  0  0  0  0  0  0  0  0  0
    0.2877    0.1807    1.5501 H   0  0  0  0  0  0  0  0  0  0  0  0
   -2.1083    0.3264    1.7456 H   0  0  0  0  0  0  0  0  0  0  0  0
   -3.5872   -0.0034   -0.0924 H   0  0  0  0  0  0  0  0  0  0  0  0
   -2.8042    1.5275   -0.2387 H   0  0  0  0  0  0  0  0  0  0  0  0
   -2.9685    0.6759   -2.3927 H   0  0  0  0  0  0  0  0  0  0  0  0
   -2.5211   -0.9211   -1.9536 H   0  0  0  0  0  0  0  0  0  0  0  0
   -1.2593    2.4274   -1.7456 H   0  0  0  0  0  0  0  0  0  0  0  0
   -0.3634    2.1366   -3.2354 H   0  0  0  0  0  0  0  0  0  0  0  0
    1.4526    3.7107   -1.9629 H   0  0  0  0  0  0  0  0  0  0  0  0
    0.5126    3.6712   -0.4867 H   0  0  0  0  0  0  0  0  0  0  0  0
    2.1664    3.0322   -0.5169 H   0  0  0  0  0  0  0  0  0  0  0  0
    0.9113   -0.4331   -2.3754 H   0  0  0  0  0  0  0  0  0  0  0  0
    0.2586   -2.3849   -1.8341 H   0  0  0  0  0  0  0  0  0  0  0  0
    1.1188   -1.3529    1.2043 H   0  0  0  0  0  0  0  0  0  0  0  0
    0.3623   -4.0439    0.6369 H   0  0  0  0  0  0  0  0  0  0  0  0
   -0.2580   -1.9498    2.7151 H   0  0  0  0  0  0  0  0  0  0  0  0
   -1.3849   -3.2637    2.3715 H   0  0  0  0  0  0  0  0  0  0  0  0
   -2.6892   -1.7970    1.1028 H   0  0  0  0  0  0  0  0  0  0  0  0
   -1.3637   -4.1302   -1.5109 H   0  0  0  0  0  0  0  0  0  0  0  0
   -2.7294   -3.0103   -1.4608 H   0  0  0  0  0  0  0  0  0  0  0  0
   -2.4317   -4.0967   -0.1054 H   0  0  0  0  0  0  0  0  0  0  0  0
    2.2851   -1.9458   -1.5030 H   0  0  0  0  0  0  0  0  0  0  0  0
    4.4386   -2.0850   -0.4904 H   0  0  0  0  0  0  0  0  0  0  0  0
    3.9341   -1.2850    1.0062 H   0  0  0  0  0  0  0  0  0  0  0  0
    3.5522   -0.0991   -1.9912 H   0  0  0  0  0  0  0  0  0  0  0  0
    4.3340    0.7629   -0.6429 H   0  0  0  0  0  0  0  0  0  0  0  0
    2.2791    1.5451    1.1638 H   0  0  0  0  0  0  0  0  0  0  0  0
  2  1  1  0  0  0  0
  3  2  1  0  0  0  0
  4  2  1  0  0  0  0
  5  4  1  0  0  0  0
  6  5  1  0  0  0  0
  7  6  1  0  0  0  0
  8  7  1  0  0  0  0
  9  8  1  0  0  0  0
 10  9  1  0  0  0  0
 11 10  1  0  0  0  0
 12 10  1  0  0  0  0
 12  4  1  0  0  0  0
 13 12  1  0  0  0  0
 13  8  1  0  0  0  0
 14 13  1  0  0  0  0
 15 14  1  0  0  0  0
 16 15  1  0  0  0  0
 17 16  1  0  0  0  0
 18 17  1  0  0  0  0
 18  5  1  0  0  0  0
 19 18  1  0  0  0  0
 19 16  1  0  0  0  0
 19 14  1  0  0  0  0
 20 19  1  0  0  0  0
 21 15  1  0  0  0  0
 22 21  1  0  0  0  0
 23 22  1  0  0  0  0
 24 23  1  0  0  0  0
 24 21  1  0  0  0  0
 24 12  1  0  0  0  0
 25 24  1  0  0  0  0
  1 26  1  0  0  0  0
  1 27  1  0  0  0  0
  1 28  1  0  0  0  0
  3 29  1  0  0  0  0
  3 30  1  0  0  0  0
  3 31  1  0  0  0  0
  4 32  1  0  0  0  0
  5 33  1  0  0  0  0
  6 34  1  0  0  0  0
  6 35  1  0  0  0  0
  7 36  1  0  0  0  0
  7 37  1  0  0  0  0
  9 38  1  0  0  0  0
  9 39  1  0  0  0  0
 11 40  1  0  0  0  0
 11 41  1  0  0  0  0
 11 42  1  0  0  0  0
 13 43  1  0  0  0  0
 14 44  1  0  0  0  0
 15 45  1  0  0  0  0
 16 46  1  0  0  0  0
 17 47  1  0  0  0  0
 17 48  1  0  0  0  0
 18 49  1  0  0  0  0
 20 50  1  0  0  0  0
 20 51  1  0  0  0  0
 20 52  1  0  0  0  0
 21 53  1  0  0  0  0
 22 54  1  0  0  0  0
 22 55  1  0  0  0  0
 23 56  1  0  0  0  0
 23 57  1  0  0  0  0
 25 58  1  0  0  0  0
M  END
>  <energy>
251.16776654320969

$$$$
