C=C(C)C(C#CCCc1c[nH]c(=N)[nH]1)NC(=O)C(C)CN1C(=O)N(CC#CC)C2=c3ccc([nH]3)=C[NH2+]
                    3D

 70 73  0  0  0  0  0  0  0  0999 V2000
   -3.9682    1.8884   -0.0333 C   0  0  0  0  0  0  0  0  0  0  0  0
   -3.4987    1.8412   -1.2983 C   0  0  0  0  0  0  0  0  0  0  0  0
   -4.2800    2.4580   -2.4322 C   0  0  0  0  0  0  0  0  0  0  0  0
   -2.1824    1.1847   -1.7061 C   0  0  0  0  0  0  0  0  0  0  0  0
   -2.2110   -0.2479   -1.3554 C   0  0  0  0  0  0  0  0  0  0  0  0
   -2.3568   -1.4300   -1.1697 C   0  0  0  0  0  0  0  0  0  0  0  0
   -2.6427   -2.8758   -1.0661 C   0  0  0  0  0  0  0  0  0  0  0  0
   -3.5882   -3.2196    0.0923 C   0  0  0  0  0  0  0  0  0  0  0  0
   -2.8420   -3.4255    1.3692 C   0  0  0  0  0  0  0  0  0  0  0  0
   -2.6966   -4.5341    2.1204 C   0  0  0  0  0  0  0  0  0  0  0  0
   -1.8275   -4.2326    3.1461 N   0  0  0  0  0  0  0  0  0  0  0  0
   -1.4209   -2.9185    3.0871 C   0  0  0  0  0  0  0  0  0  0  0  0
   -0.6070   -2.3151    3.8687 N   0  0  0  0  0  0  0  0  0  0  0  0
   -2.0900   -2.4280    1.9849 N   0  0  0  0  0  0  0  0  0  0  0  0
   -1.1229    1.8757   -0.9905 N   0  0  0  0  0  0  0  0  0  0  0  0
   -0.6047    3.0331   -1.5344 C   0  0  0  0  0  0  0  0  0  0  0  0
   -0.8031    3.3802   -2.6952 O   0  0  0  0  0  0  0  0  0  0  0  0
    0.2840    3.8707   -0.6272 C   0  0  0  0  0  0  0  0  0  0  0  0
   -0.2167    3.9905    0.8114 C   0  0  0  0  0  0  0  0  0  0  0  0
    1.7730    3.5188   -0.7693 C   0  0  0  0  0  0  0  0  0  0  0  0
    2.1921    2.1315   -0.5688 N   0  0  0  0  0  0  0  0  0  0  0  0
    2.6414    1.3253   -1.6287 C   0  0  0  0  0  0  0  0  0  0  0  0
    2.8239    1.7064   -2.7693 O   0  0  0  0  0  0  0  0  0  0  0  0
    2.8988    0.0529   -1.1209 N   0  0  0  0  0  0  0  0  0  0  0  0
    3.3927   -1.0166   -1.9660 C   0  0  0  0  0  0  0  0  0  0  0  0
    2.3489   -2.0008   -2.2695 C   0  0  0  0  0  0  0  0  0  0  0  0
    1.5132   -2.8104   -2.5639 C   0  0  0  0  0  0  0  0  0  0  0  0
    0.5043   -3.7908   -2.9604 C   0  0  0  0  0  0  0  0  0  0  0  0
    2.5200   -0.0260    0.2037 C   0  0  0  0  0  0  0  0  0  0  0  0
    2.8069   -0.9555    1.1469 C   0  0  0  0  0  0  0  0  0  0  0  0
    4.2436   -1.1951    1.3406 C   0  0  0  0  0  0  0  0  0  0  0  0
    4.6059   -0.4928    2.4357 C   0  0  0  0  0  0  0  0  0  0  0  0
    3.4004    0.1142    3.0512 C   0  0  0  0  0  0  0  0  0  0  0  0
    2.3496   -0.6606    2.4646 N   0  0  0  0  0  0  0  0  0  0  0  0
    3.1702    1.4540    2.9405 C   0  0  0  0  0  0  0  0  0  0  0  0
    3.1729    2.0078    1.5868 N   0  3  0  0  0  0  0  0  0  0  0  0
    2.1430    1.3878    0.6569 C   0  0  0  0  0  0  0  0  0  0  0  0
   -4.9086    2.3775    0.2033 H   0  0  0  0  0  0  0  0  0  0  0  0
   -3.4375    1.4322    0.7963 H   0  0  0  0  0  0  0  0  0  0  0  0
   -5.2330    2.8823   -2.0956 H   0  0  0  0  0  0  0  0  0  0  0  0
   -3.7009    3.2623   -2.8996 H   0  0  0  0  0  0  0  0  0  0  0  0
   -4.5087    1.7035   -3.1947 H   0  0  0  0  0  0  0  0  0  0  0  0
   -2.0199    1.2883   -2.7849 H   0  0  0  0  0  0  0  0  0  0  0  0
   -1.7069   -3.4400   -0.9778 H   0  0  0  0  0  0  0  0  0  0  0  0
   -3.1134   -3.1930   -2.0056 H   0  0  0  0  0  0  0  0  0  0  0  0
   -4.1230   -4.1436   -0.1615 H   0  0  0  0  0  0  0  0  0  0  0  0
   -4.3500   -2.4411    0.2172 H   0  0  0  0  0  0  0  0  0  0  0  0
   -3.1141   -5.5231    2.0033 H   0  0  0  0  0  0  0  0  0  0  0  0
   -1.5415   -4.8836    3.8615 H   0  0  0  0  0  0  0  0  0  0  0  0
   -0.5568   -1.3389    3.5824 H   0  0  0  0  0  0  0  0  0  0  0  0
   -2.0263   -1.5054    1.5893 H   0  0  0  0  0  0  0  0  0  0  0  0
   -1.2017    1.8091    0.0069 H   0  0  0  0  0  0  0  0  0  0  0  0
    0.1869    4.8911   -1.0308 H   0  0  0  0  0  0  0  0  0  0  0  0
   -0.1368    3.0646    1.3791 H   0  0  0  0  0  0  0  0  0  0  0  0
    0.3491    4.7639    1.3469 H   0  0  0  0  0  0  0  0  0  0  0  0
   -1.2722    4.2864    0.8199 H   0  0  0  0  0  0  0  0  0  0  0  0
    2.0889    3.8112   -1.7792 H   0  0  0  0  0  0  0  0  0  0  0  0
    2.3629    4.1424   -0.0898 H   0  0  0  0  0  0  0  0  0  0  0  0
    4.2469   -1.4873   -1.4744 H   0  0  0  0  0  0  0  0  0  0  0  0
    3.7730   -0.5972   -2.9039 H   0  0  0  0  0  0  0  0  0  0  0  0
    0.2370   -4.4384   -2.1208 H   0  0  0  0  0  0  0  0  0  0  0  0
   -0.4042   -3.2955   -3.3158 H   0  0  0  0  0  0  0  0  0  0  0  0
    0.8741   -4.4282   -3.7678 H   0  0  0  0  0  0  0  0  0  0  0  0
    4.8724   -1.8125    0.7175 H   0  0  0  0  0  0  0  0  0  0  0  0
    5.5952   -0.4522    2.8680 H   0  0  0  0  0  0  0  0  0  0  0  0
    2.2859   -1.5551    2.9810 H   0  0  0  0  0  0  0  0  0  0  0  0
    2.3978    1.8609    3.6008 H   0  0  0  0  0  0  0  0  0  0  0  0
    4.0869    1.8590    1.1398 H   0  0  0  0  0  0  0  0  0  0  0  0
    3.0237    3.0157    1.6021 H   0  0  0  0  0  0  0  0  0  0  0  0
    1.1494    1.4391    1.1050 H   0  0  0  0  0  0  0  0  0  0  0  0
  2  1  2  0  0  0  0
  3  2  1  0  0  0  0
  4  2  1  0  0  0  0
  5  4  1  0  0  0  0
  6  5  3  0  0  0  0
  7  6  1  0  0  0  0
  8  7  1  0  0  0  0
  9  8  1  0  0  0  0
 10  9  2  0  0  0  0
 11 10  1  0  0  0  0
 12 11  1  0  0  0  0
 13 12  2  0  0  0  0
 14 12  1  0  0  0  0
 14  9  1  0  0  0  0
 15  4  1  0  0  0  0
 16 15  1  0  0  0  0
 17 16  2  0  0  0  0
 18 16  1  0  0  0  0
 19 18  1  0  0  0  0
 20 18  1  0  0  0  0
 21 20  1  0  0  0  0
 22 21  1  0  0  0  0
 23 22  2  0  0  0  0
 24 22  1  0  0  0  0
 25 24  1  0  0  0  0
 26 25  1  0  0  0  0
 27 26  3  0  0  0  0
 28 27  1  0  0  0  0
 29 24  1  0  0  0  0
 30 29  2  0  0  0  0
 31 30  1  0  0  0  0
 32 31  2  0  0  0  0
 33 32  1  0  0  0  0
 34 33  1  0  0  0  0
 34 30  1  0  0  0  0
 35 33  2  0  0  0  0
 36 35  1  0  0  0  0
 37 36  1  0  0  0  0
 37 29  1  0  0  0  0
 37 21  1  0  0  0  0
  1 38  1  0  0  0  0
  1 39  1  0  0  0  0
  3 40  1  0  0  0  0
  3 41  1  0  0  0  0
  3 42  1  0  0  0  0
  4 43  1  0  0  0  0
  7 44  1  0  0  0  0
  7 45  1  0  0  0  0
  8 46  1  0  0  0  0
  8 47  1  0  0  0  0
 10 48  1  0  0  0  0
 11 49  1  0  0  0  0
 13 50  1  0  0  0  0
 14 51  1  0  0  0  0
 15 52  1  0  0  0  0
 18 53  1  0  0  0  0
 19 54  1  0  0  0  0
 19 55  1  0  0  0  0
 19 56  1  0  0  0  0
 20 57  1  0  0  0  0
 20 58  1  0  0  0  0
 25 59  1  0  0  0  0
 25 60  1  0  0  0  0
 28 61  1  0  0  0  0
 28 62  1  0  0  0  0
 28 63  1  0  0  0  0
 31 64  1  0  0  0  0
 32 65  1  0  0  0  0
 34 66  1  0  0  0  0
 35 67  1  0  0  0  0
 36 68  1  0  0  0  0
 36 69  1  0  0  0  0
 37 70  1  0  0  0  0
M  CHG  1  36   1
M  END
>  <energy>
-4.3642926395240522

$$$$
