CC(N=C1C(C(=O)O)=C(C(O)O)Oc2oc3c(c(=O)c2O)C1NCN3)O[N+]([O-])=NNN
                    3D

 48 50  0  0  0  0  0  0  0  0999 V2000
    0.3884    1.9853    3.4826 C   0  0  0  0  0  0  0  0  0  0  0  0
    0.9633    1.6798    2.0964 C   0  0  0  0  0  0  0  0  0  0  0  0
    0.4644    0.3781    1.6882 N   0  0  0  0  0  0  0  0  0  0  0  0
   -0.0350    0.0836    0.5327 C   0  0  0  0  0  0  0  0  0  0  0  0
   -0.3186   -1.4193    0.2427 C   0  0  0  0  0  0  0  0  0  0  0  0
    0.3910   -2.3351    1.1725 C   0  0  0  0  0  0  0  0  0  0  0  0
   -0.1465   -3.0467    1.9991 O   0  0  0  0  0  0  0  0  0  0  0  0
    1.7188   -2.3184    0.9572 O   0  0  0  0  0  0  0  0  0  0  0  0
   -1.1061   -2.0764   -0.6727 C   0  0  0  0  0  0  0  0  0  0  0  0
   -1.0549   -3.5920   -0.9105 C   0  0  0  0  0  0  0  0  0  0  0  0
    0.2735   -4.0804   -0.9004 O   0  0  0  0  0  0  0  0  0  0  0  0
   -1.8277   -4.3052    0.0253 O   0  0  0  0  0  0  0  0  0  0  0  0
   -2.0014   -1.5174   -1.6113 O   0  0  0  0  0  0  0  0  0  0  0  0
   -2.9198   -0.5201   -1.2736 C   0  0  0  0  0  0  0  0  0  0  0  0
   -3.0005    0.5851   -2.1739 O   0  0  0  0  0  0  0  0  0  0  0  0
   -2.2231    1.6806   -1.7628 C   0  0  0  0  0  0  0  0  0  0  0  0
   -1.7905    1.6285   -0.4934 C   0  0  0  0  0  0  0  0  0  0  0  0
   -2.7799    1.0251    0.4314 C   0  0  0  0  0  0  0  0  0  0  0  0
   -3.0376    1.4801    1.5369 O   0  0  0  0  0  0  0  0  0  0  0  0
   -3.2730   -0.3119    0.0100 C   0  0  0  0  0  0  0  0  0  0  0  0
   -3.3492   -1.2792    0.9891 O   0  0  0  0  0  0  0  0  0  0  0  0
   -0.3861    1.0578   -0.5809 C   0  0  0  0  0  0  0  0  0  0  0  0
    0.5245    2.1301   -1.0197 N   0  0  0  0  0  0  0  0  0  0  0  0
    0.0316    2.4972   -2.3771 C   0  0  0  0  0  0  0  0  0  0  0  0
   -1.3805    2.2497   -2.7125 N   0  0  0  0  0  0  0  0  0  0  0  0
    2.3813    1.7439    2.2646 O   0  0  0  0  0  0  0  0  0  0  0  0
    2.9750    1.6709    1.0073 N   0  3  0  0  0  0  0  0  0  0  0  0
    3.2396    2.7765    0.4247 O   0  5  0  0  0  0  0  0  0  0  0  0
    3.2192    0.5070    0.5323 N   0  0  0  0  0  0  0  0  0  0  0  0
    3.7414    0.4645   -0.7090 N   0  0  0  0  0  0  0  0  0  0  0  0
    3.2340   -0.6741   -1.3889 N   0  0  0  0  0  0  0  0  0  0  0  0
   -0.7015    2.0342    3.4641 H   0  0  0  0  0  0  0  0  0  0  0  0
    0.6895    1.2246    4.2154 H   0  0  0  0  0  0  0  0  0  0  0  0
    0.7734    2.9430    3.8451 H   0  0  0  0  0  0  0  0  0  0  0  0
    0.6387    2.4954    1.4524 H   0  0  0  0  0  0  0  0  0  0  0  0
    2.0642   -2.9397    1.6307 H   0  0  0  0  0  0  0  0  0  0  0  0
   -1.4635   -3.8093   -1.9107 H   0  0  0  0  0  0  0  0  0  0  0  0
    0.2447   -4.9045   -1.4124 H   0  0  0  0  0  0  0  0  0  0  0  0
   -1.6359   -3.9306    0.9072 H   0  0  0  0  0  0  0  0  0  0  0  0
   -3.4030   -0.7966    1.8421 H   0  0  0  0  0  0  0  0  0  0  0  0
   -0.2917    0.3561   -1.4293 H   0  0  0  0  0  0  0  0  0  0  0  0
    0.3870    2.9551   -0.4402 H   0  0  0  0  0  0  0  0  0  0  0  0
    0.2415    3.5590   -2.5563 H   0  0  0  0  0  0  0  0  0  0  0  0
    0.6484    1.9471   -3.1007 H   0  0  0  0  0  0  0  0  0  0  0  0
   -1.5387    1.8774   -3.6442 H   0  0  0  0  0  0  0  0  0  0  0  0
    3.6168    1.3571   -1.1884 H   0  0  0  0  0  0  0  0  0  0  0  0
    4.0116   -1.2107   -1.7814 H   0  0  0  0  0  0  0  0  0  0  0  0
    2.8031   -1.3051   -0.6994 H   0  0  0  0  0  0  0  0  0  0  0  0
  2  1  1  0  0  0  0
  3  2  1  0  0  0  0
  4  3  2  0  0  0  0
  5  4  1  0  0  0  0
  6  5  1  0  0  0  0
  7  6  2  0  0  0  0
  8  6  1  0  0  0  0
  9  5  2  0  0  0  0
 10  9  1  0  0  0  0
 11 10  1  0  0  0  0
 12 10  1  0  0  0  0
 13  9  1  0  0  0  0
 14 13  1  0  0  0  0
 15 14  1  0  0  0  0
 16 15  1  0  0  0  0
 17 16  2  0  0  0  0
 18 17  1  0  0  0  0
 19 18  2  0  0  0  0
 20 18  1  0  0  0  0
 20 14  2  0  0  0  0
 21 20  1  0  0  0  0
 22 17  1  0  0  0  0
 22  4  1  0  0  0  0
 23 22  1  0  0  0  0
 24 23  1  0  0  0  0
 25 24  1  0  0  0  0
 25 16  1  0  0  0  0
 26  2  1  0  0  0  0
 27 26  1  0  0  0  0
 28 27  1  0  0  0  0
 29 27  2  0  0  0  0
 30 29  1  0  0  0  0
 31 30  1  0  0  0  0
  1 32  1  0  0  0  0
  1 33  1  0  0  0  0
  1 34  1  0  0  0  0
  2 35  1  0  0  0  0
  8 36  1  0  0  0  0
 10 37  1  0  0  0  0
 11 38  1  0  0  0  0
 12 39  1  0  0  0  0
 21 40  1  0  0  0  0
 22 41  1  0  0  0  0
 23 42  1  0  0  0  0
 24 43  1  0  0  0  0
 24 44  1  0  0  0  0
 25 45  1  0  0  0  0
 30 46  1  0  0  0  0
 31 47  1  0  0  0  0
 31 48  1  0  0  0  0
M  CHG  2  27   1  28  -1
M  END
>  <energy>
32.685783928558692

$$$$
