C=C(C)C(NC)C(O)C(C)CCC(C)C1C(=O)C23CC4(C=C(OC(=O)CC(C)C)C42)CCC(O)C3(C)C1O
                    3D

 87 90  0  0  0  0  0  0  0  0999 V2000
   -2.9276   -1.8496    1.1203 C   0  0  0  0  0  0  0  0  0  0  0  0
   -3.5235   -0.6442    1.0816 C   0  0  0  0  0  0  0  0  0  0  0  0
   -3.3292    0.3280    2.2187 C   0  0  0  0  0  0  0  0  0  0  0  0
   -4.4210   -0.1551   -0.0458 C   0  0  0  0  0  0  0  0  0  0  0  0
   -5.8650   -0.2217    0.3349 N   0  0  0  0  0  0  0  0  0  0  0  0
   -6.3381   -1.5632    0.6617 C   0  0  0  0  0  0  0  0  0  0  0  0
   -4.2151   -0.7208   -1.5028 C   0  0  0  0  0  0  0  0  0  0  0  0
   -5.2669   -0.1577   -2.3245 O   0  0  0  0  0  0  0  0  0  0  0  0
   -2.8750   -0.4089   -2.2414 C   0  0  0  0  0  0  0  0  0  0  0  0
   -1.8003   -1.4670   -1.9894 C   0  0  0  0  0  0  0  0  0  0  0  0
   -2.3523    1.0123   -1.9475 C   0  0  0  0  0  0  0  0  0  0  0  0
   -1.2730    1.5240   -2.9154 C   0  0  0  0  0  0  0  0  0  0  0  0
    0.1852    1.3045   -2.4421 C   0  0  0  0  0  0  0  0  0  0  0  0
    1.0029    0.7737   -3.6333 C   0  0  0  0  0  0  0  0  0  0  0  0
    0.8200    2.6072   -1.8806 C   0  0  0  0  0  0  0  0  0  0  0  0
    2.2966    2.4740   -1.5677 C   0  0  0  0  0  0  0  0  0  0  0  0
    3.1624    2.6237   -2.4280 O   0  0  0  0  0  0  0  0  0  0  0  0
    2.5252    2.0978   -0.0315 C   0  0  0  0  0  0  0  0  0  0  0  0
    3.9336    2.6319    0.5602 C   0  0  0  0  0  0  0  0  0  0  0  0
    3.7884    1.4538    1.5273 C   0  0  0  0  0  0  0  0  0  0  0  0
    4.4698    0.0926    1.5151 C   0  0  0  0  0  0  0  0  0  0  0  0
    3.3042   -0.4515    1.0188 C   0  0  0  0  0  0  0  0  0  0  0  0
    2.7766   -1.6151    0.9035 O   0  0  0  0  0  0  0  0  0  0  0  0
    2.9439   -2.4761    1.9742 C   0  0  0  0  0  0  0  0  0  0  0  0
    3.2021   -2.1477    3.1295 O   0  0  0  0  0  0  0  0  0  0  0  0
    2.7267   -3.9222    1.5667 C   0  0  0  0  0  0  0  0  0  0  0  0
    2.8549   -4.2308    0.0626 C   0  0  0  0  0  0  0  0  0  0  0  0
    1.5214   -4.0305   -0.6604 C   0  0  0  0  0  0  0  0  0  0  0  0
    3.3291   -5.6710   -0.1509 C   0  0  0  0  0  0  0  0  0  0  0  0
    3.2287    0.7351    0.0886 C   0  0  0  0  0  0  0  0  0  0  0  0
    3.0997    1.7124    2.8736 C   0  0  0  0  0  0  0  0  0  0  0  0
    2.2900    2.9902    2.9775 C   0  0  0  0  0  0  0  0  0  0  0  0
    1.2729    3.3256    1.8791 C   0  0  0  0  0  0  0  0  0  0  0  0
    1.5745    4.6636    1.4594 O   0  0  0  0  0  0  0  0  0  0  0  0
    1.1569    2.3964    0.6415 C   0  0  0  0  0  0  0  0  0  0  0  0
    0.4173    1.1097    1.0563 C   0  0  0  0  0  0  0  0  0  0  0  0
    0.3712    3.1468   -0.5084 C   0  0  0  0  0  0  0  0  0  0  0  0
   -1.0273    3.1130   -0.3043 O   0  0  0  0  0  0  0  0  0  0  0  0
   -3.0720   -2.5889    0.3402 H   0  0  0  0  0  0  0  0  0  0  0  0
   -2.2930   -2.1416    1.9511 H   0  0  0  0  0  0  0  0  0  0  0  0
   -2.9587    1.2839    1.8380 H   0  0  0  0  0  0  0  0  0  0  0  0
   -2.6064   -0.0364    2.9556 H   0  0  0  0  0  0  0  0  0  0  0  0
   -4.2714    0.5070    2.7457 H   0  0  0  0  0  0  0  0  0  0  0  0
   -4.2477    0.9256   -0.1327 H   0  0  0  0  0  0  0  0  0  0  0  0
   -6.0058    0.3793    1.1478 H   0  0  0  0  0  0  0  0  0  0  0  0
   -5.8584   -1.9684    1.5585 H   0  0  0  0  0  0  0  0  0  0  0  0
   -6.2009   -2.2606   -0.1697 H   0  0  0  0  0  0  0  0  0  0  0  0
   -7.4115   -1.5196    0.8701 H   0  0  0  0  0  0  0  0  0  0  0  0
   -4.3899   -1.8022   -1.5197 H   0  0  0  0  0  0  0  0  0  0  0  0
   -6.0404   -0.1057   -1.7236 H   0  0  0  0  0  0  0  0  0  0  0  0
   -3.0994   -0.4555   -3.3171 H   0  0  0  0  0  0  0  0  0  0  0  0
   -1.2904   -1.3230   -1.0336 H   0  0  0  0  0  0  0  0  0  0  0  0
   -2.2203   -2.4777   -2.0127 H   0  0  0  0  0  0  0  0  0  0  0  0
   -1.0361   -1.4293   -2.7714 H   0  0  0  0  0  0  0  0  0  0  0  0
   -1.9912    1.0478   -0.9168 H   0  0  0  0  0  0  0  0  0  0  0  0
   -3.1976    1.7086   -2.0157 H   0  0  0  0  0  0  0  0  0  0  0  0
   -1.4430    1.0648   -3.8958 H   0  0  0  0  0  0  0  0  0  0  0  0
   -1.4365    2.5973   -3.0721 H   0  0  0  0  0  0  0  0  0  0  0  0
    0.2146    0.5117   -1.6976 H   0  0  0  0  0  0  0  0  0  0  0  0
    0.5169   -0.0949   -4.0900 H   0  0  0  0  0  0  0  0  0  0  0  0
    1.9961    0.4404   -3.3155 H   0  0  0  0  0  0  0  0  0  0  0  0
    1.1219    1.5406   -4.4050 H   0  0  0  0  0  0  0  0  0  0  0  0
    0.7046    3.4047   -2.6253 H   0  0  0  0  0  0  0  0  0  0  0  0
    3.9264    3.6434    0.9713 H   0  0  0  0  0  0  0  0  0  0  0  0
    4.7975    2.5791   -0.1174 H   0  0  0  0  0  0  0  0  0  0  0  0
    5.2654   -0.3194    2.1340 H   0  0  0  0  0  0  0  0  0  0  0  0
    3.4974   -4.4857    2.1071 H   0  0  0  0  0  0  0  0  0  0  0  0
    1.7514   -4.2417    1.9484 H   0  0  0  0  0  0  0  0  0  0  0  0
    3.6029   -3.5716   -0.3945 H   0  0  0  0  0  0  0  0  0  0  0  0
    1.1566   -3.0054   -0.5573 H   0  0  0  0  0  0  0  0  0  0  0  0
    0.7542   -4.7032   -0.2629 H   0  0  0  0  0  0  0  0  0  0  0  0
    1.6251   -4.2395   -1.7297 H   0  0  0  0  0  0  0  0  0  0  0  0
    2.6280   -6.3888    0.2880 H   0  0  0  0  0  0  0  0  0  0  0  0
    3.4195   -5.8975   -1.2192 H   0  0  0  0  0  0  0  0  0  0  0  0
    4.3121   -5.8323    0.3048 H   0  0  0  0  0  0  0  0  0  0  0  0
    3.9251    0.6069   -0.7624 H   0  0  0  0  0  0  0  0  0  0  0  0
    3.8833    1.7804    3.6427 H   0  0  0  0  0  0  0  0  0  0  0  0
    2.4852    0.8641    3.1935 H   0  0  0  0  0  0  0  0  0  0  0  0
    2.9981    3.8220    3.0941 H   0  0  0  0  0  0  0  0  0  0  0  0
    1.7519    2.9636    3.9354 H   0  0  0  0  0  0  0  0  0  0  0  0
    0.2787    3.3831    2.3450 H   0  0  0  0  0  0  0  0  0  0  0  0
    1.5579    5.2345    2.2506 H   0  0  0  0  0  0  0  0  0  0  0  0
   -0.6170    1.3221    1.3411 H   0  0  0  0  0  0  0  0  0  0  0  0
    0.4026    0.3549    0.2709 H   0  0  0  0  0  0  0  0  0  0  0  0
    0.8682    0.6259    1.9219 H   0  0  0  0  0  0  0  0  0  0  0  0
    0.6469    4.2087   -0.5144 H   0  0  0  0  0  0  0  0  0  0  0  0
   -1.4410    3.7048   -0.9605 H   0  0  0  0  0  0  0  0  0  0  0  0
  2  1  2  0  0  0  0
  3  2  1  0  0  0  0
  4  2  1  0  0  0  0
  5  4  1  0  0  0  0
  6  5  1  0  0  0  0
  7  4  1  0  0  0  0
  8  7  1  0  0  0  0
  9  7  1  0  0  0  0
 10  9  1  0  0  0  0
 11  9  1  0  0  0  0
 12 11  1  0  0  0  0
 13 12  1  0  0  0  0
 14 13  1  0  0  0  0
 15 13  1  0  0  0  0
 16 15  1  0  0  0  0
 17 16  2  0  0  0  0
 18 16  1  0  0  0  0
 19 18  1  0  0  0  0
 20 19  1  0  0  0  0
 21 20  1  0  0  0  0
 22 21  2  0  0  0  0
 23 22  1  0  0  0  0
 24 23  1  0  0  0  0
 25 24  2  0  0  0  0
 26 24  1  0  0  0  0
 27 26  1  0  0  0  0
 28 27  1  0  0  0  0
 29 27  1  0  0  0  0
 30 22  1  0  0  0  0
 30 20  1  0  0  0  0
 30 18  1  0  0  0  0
 31 20  1  0  0  0  0
 32 31  1  0  0  0  0
 33 32  1  0  0  0  0
 34 33  1  0  0  0  0
 35 33  1  0  0  0  0
 35 18  1  0  0  0  0
 36 35  1  0  0  0  0
 37 35  1  0  0  0  0
 37 15  1  0  0  0  0
 38 37  1  0  0  0  0
  1 39  1  0  0  0  0
  1 40  1  0  0  0  0
  3 41  1  0  0  0  0
  3 42  1  0  0  0  0
  3 43  1  0  0  0  0
  4 44  1  0  0  0  0
  5 45  1  0  0  0  0
  6 46  1  0  0  0  0
  6 47  1  0  0  0  0
  6 48  1  0  0  0  0
  7 49  1  0  0  0  0
  8 50  1  0  0  0  0
  9 51  1  0  0  0  0
 10 52  1  0  0  0  0
 10 53  1  0  0  0  0
 10 54  1  0  0  0  0
 11 55  1  0  0  0  0
 11 56  1  0  0  0  0
 12 57  1  0  0  0  0
 12 58  1  0  0  0  0
 13 59  1  0  0  0  0
 14 60  1  0  0  0  0
 14 61  1  0  0  0  0
 14 62  1  0  0  0  0
 15 63  1  0  0  0  0
 19 64  1  0  0  0  0
 19 65  1  0  0  0  0
 21 66  1  0  0  0  0
 26 67  1  0  0  0  0
 26 68  1  0  0  0  0
 27 69  1  0  0  0  0
 28 70  1  0  0  0  0
 28 71  1  0  0  0  0
 28 72  1  0  0  0  0
 29 73  1  0  0  0  0
 29 74  1  0  0  0  0
 29 75  1  0  0  0  0
 30 76  1  0  0  0  0
 31 77  1  0  0  0  0
 31 78  1  0  0  0  0
 32 79  1  0  0  0  0
 32 80  1  0  0  0  0
 33 81  1  0  0  0  0
 34 82  1  0  0  0  0
 36 83  1  0  0  0  0
 36 84  1  0  0  0  0
 36 85  1  0  0  0  0
 37 86  1  0  0  0  0
 38 87  1  0  0  0  0
M  END
>  <energy>
181.40857601507969

$$$$
