C=C1C(O)CC(O)OC1CCC(=O)CC1CC2(C)C3CCC(C3)(CC2(C)CCC=C(C)C)O1
                    3D

 77 80  0  0  0  0  0  0  0  0999 V2000
   -4.1224    1.8076    0.2498 C   0  0  0  0  0  0  0  0  0  0  0  0
   -4.4466    0.6077   -0.2671 C   0  0  0  0  0  0  0  0  0  0  0  0
   -5.7820    0.3036   -0.9026 C   0  0  0  0  0  0  0  0  0  0  0  0
   -6.5917    1.4702   -1.0032 O   0  0  0  0  0  0  0  0  0  0  0  0
   -5.5600   -0.2746   -2.2904 C   0  0  0  0  0  0  0  0  0  0  0  0
   -4.6072   -1.4553   -2.1878 C   0  0  0  0  0  0  0  0  0  0  0  0
   -4.3145   -1.9478   -3.4834 O   0  0  0  0  0  0  0  0  0  0  0  0
   -3.3674   -1.0990   -1.5947 O   0  0  0  0  0  0  0  0  0  0  0  0
   -3.4683   -0.5512   -0.2740 C   0  0  0  0  0  0  0  0  0  0  0  0
   -3.8118   -1.6254    0.7771 C   0  0  0  0  0  0  0  0  0  0  0  0
   -2.8007   -2.7808    0.8138 C   0  0  0  0  0  0  0  0  0  0  0  0
   -1.8330   -2.6924    1.9805 C   0  0  0  0  0  0  0  0  0  0  0  0
   -2.1889   -2.2695    3.0815 O   0  0  0  0  0  0  0  0  0  0  0  0
   -0.4133   -3.1752    1.7561 C   0  0  0  0  0  0  0  0  0  0  0  0
    0.4936   -2.0088    1.3475 C   0  0  0  0  0  0  0  0  0  0  0  0
    0.5617   -1.8621   -0.1558 C   0  0  0  0  0  0  0  0  0  0  0  0
    1.8245   -1.1177   -0.5957 C   0  0  0  0  0  0  0  0  0  0  0  0
    1.6371   -0.7460   -2.0838 C   0  0  0  0  0  0  0  0  0  0  0  0
    3.1019   -2.1644   -0.5317 C   0  0  0  0  0  0  0  0  0  0  0  0
    3.2322   -3.4766    0.3952 C   0  0  0  0  0  0  0  0  0  0  0  0
    3.6545   -2.9216    1.8938 C   0  0  0  0  0  0  0  0  0  0  0  0
    3.0548   -1.5601    1.6542 C   0  0  0  0  0  0  0  0  0  0  0  0
    3.9750   -1.4153    0.3682 C   0  0  0  0  0  0  0  0  0  0  0  0
    2.6798   -0.1081    1.8185 C   0  0  0  0  0  0  0  0  0  0  0  0
    2.0119    0.3100    0.3502 C   0  0  0  0  0  0  0  0  0  0  0  0
    0.6551    1.0627    0.5567 C   0  0  0  0  0  0  0  0  0  0  0  0
    2.8504    1.3996   -0.4484 C   0  0  0  0  0  0  0  0  0  0  0  0
    3.4363    2.5610    0.3810 C   0  0  0  0  0  0  0  0  0  0  0  0
    3.3859    3.8496   -0.4008 C   0  0  0  0  0  0  0  0  0  0  0  0
    2.5828    4.9107   -0.1768 C   0  0  0  0  0  0  0  0  0  0  0  0
    2.5854    6.0982   -1.1076 C   0  0  0  0  0  0  0  0  0  0  0  0
    1.6013    5.0320    0.9568 C   0  0  0  0  0  0  0  0  0  0  0  0
    1.7615   -2.2214    1.9089 O   0  0  0  0  0  0  0  0  0  0  0  0
   -4.8335    2.6299    0.2601 H   0  0  0  0  0  0  0  0  0  0  0  0
   -3.1506    2.0041    0.6895 H   0  0  0  0  0  0  0  0  0  0  0  0
   -6.3208   -0.4104   -0.2687 H   0  0  0  0  0  0  0  0  0  0  0  0
   -7.4998    1.1735   -1.1881 H   0  0  0  0  0  0  0  0  0  0  0  0
   -5.1583    0.4894   -2.9683 H   0  0  0  0  0  0  0  0  0  0  0  0
   -6.5129   -0.5810   -2.7431 H   0  0  0  0  0  0  0  0  0  0  0  0
   -5.0704   -2.2750   -1.6322 H   0  0  0  0  0  0  0  0  0  0  0  0
   -3.6452   -1.3303   -3.8160 H   0  0  0  0  0  0  0  0  0  0  0  0
   -2.4636   -0.1721   -0.0461 H   0  0  0  0  0  0  0  0  0  0  0  0
   -3.9018   -1.1436    1.7576 H   0  0  0  0  0  0  0  0  0  0  0  0
   -4.7949   -2.0545    0.5539 H   0  0  0  0  0  0  0  0  0  0  0  0
   -3.3384   -3.7280    0.9350 H   0  0  0  0  0  0  0  0  0  0  0  0
   -2.2401   -2.8448   -0.1208 H   0  0  0  0  0  0  0  0  0  0  0  0
   -0.0684   -3.6253    2.6984 H   0  0  0  0  0  0  0  0  0  0  0  0
   -0.4132   -3.9946    1.0290 H   0  0  0  0  0  0  0  0  0  0  0  0
    0.0903   -1.1365    1.8477 H   0  0  0  0  0  0  0  0  0  0  0  0
   -0.3421   -1.3532   -0.5094 H   0  0  0  0  0  0  0  0  0  0  0  0
    0.5552   -2.8427   -0.6435 H   0  0  0  0  0  0  0  0  0  0  0  0
    2.5432   -0.3113   -2.5150 H   0  0  0  0  0  0  0  0  0  0  0  0
    0.8230   -0.0313   -2.2256 H   0  0  0  0  0  0  0  0  0  0  0  0
    1.3998   -1.6330   -2.6809 H   0  0  0  0  0  0  0  0  0  0  0  0
    3.5321   -2.3479   -1.5217 H   0  0  0  0  0  0  0  0  0  0  0  0
    4.0377   -4.1245    0.0336 H   0  0  0  0  0  0  0  0  0  0  0  0
    2.3097   -4.0640    0.4095 H   0  0  0  0  0  0  0  0  0  0  0  0
    3.2107   -3.5686    2.6651 H   0  0  0  0  0  0  0  0  0  0  0  0
    4.7414   -2.9500    2.0535 H   0  0  0  0  0  0  0  0  0  0  0  0
    4.9885   -1.8474    0.4422 H   0  0  0  0  0  0  0  0  0  0  0  0
    4.2701   -0.4115    0.0895 H   0  0  0  0  0  0  0  0  0  0  0  0
    1.9457    0.0609    2.6138 H   0  0  0  0  0  0  0  0  0  0  0  0
    3.5573    0.5075    2.0396 H   0  0  0  0  0  0  0  0  0  0  0  0
   -0.0569    0.5888    1.2233 H   0  0  0  0  0  0  0  0  0  0  0  0
    0.1363    1.2097   -0.3972 H   0  0  0  0  0  0  0  0  0  0  0  0
    0.8130    2.0557    0.9878 H   0  0  0  0  0  0  0  0  0  0  0  0
    3.6632    0.9657   -1.0383 H   0  0  0  0  0  0  0  0  0  0  0  0
    2.1859    1.8199   -1.2191 H   0  0  0  0  0  0  0  0  0  0  0  0
    4.4844    2.3386    0.6171 H   0  0  0  0  0  0  0  0  0  0  0  0
    2.9333    2.6552    1.3440 H   0  0  0  0  0  0  0  0  0  0  0  0
    4.0544    3.8799   -1.2615 H   0  0  0  0  0  0  0  0  0  0  0  0
    3.2830    5.9778   -1.9423 H   0  0  0  0  0  0  0  0  0  0  0  0
    1.5854    6.2442   -1.5301 H   0  0  0  0  0  0  0  0  0  0  0  0
    2.8650    7.0072   -0.5662 H   0  0  0  0  0  0  0  0  0  0  0  0
    1.7088    4.2577    1.7175 H   0  0  0  0  0  0  0  0  0  0  0  0
    0.5763    4.9859    0.5740 H   0  0  0  0  0  0  0  0  0  0  0  0
    1.7393    5.9903    1.4668 H   0  0  0  0  0  0  0  0  0  0  0  0
  2  1  2  0  0  0  0
  3  2  1  0  0  0  0
  4  3  1  0  0  0  0
  5  3  1  0  0  0  0
  6  5  1  0  0  0  0
  7  6  1  0  0  0  0
  8  6  1  0  0  0  0
  9  8  1  0  0  0  0
  9  2  1  0  0  0  0
 10  9  1  0  0  0  0
 11 10  1  0  0  0  0
 12 11  1  0  0  0  0
 13 12  2  0  0  0  0
 14 12  1  0  0  0  0
 15 14  1  0  0  0  0
 16 15  1  0  0  0  0
 17 16  1  0  0  0  0
 18 17  1  0  0  0  0
 19 17  1  0  0  0  0
 20 19  1  0  0  0  0
 21 20  1  0  0  0  0
 22 21  1  0  0  0  0
 23 22  1  0  0  0  0
 23 19  1  0  0  0  0
 24 22  1  0  0  0  0
 25 24  1  0  0  0  0
 25 17  1  0  0  0  0
 26 25  1  0  0  0  0
 27 25  1  0  0  0  0
 28 27  1  0  0  0  0
 29 28  1  0  0  0  0
 30 29  2  0  0  0  0
 31 30  1  0  0  0  0
 32 30  1  0  0  0  0
 33 22  1  0  0  0  0
 33 15  1  0  0  0  0
  1 34  1  0  0  0  0
  1 35  1  0  0  0  0
  3 36  1  0  0  0  0
  4 37  1  0  0  0  0
  5 38  1  0  0  0  0
  5 39  1  0  0  0  0
  6 40  1  0  0  0  0
  7 41  1  0  0  0  0
  9 42  1  0  0  0  0
 10 43  1  0  0  0  0
 10 44  1  0  0  0  0
 11 45  1  0  0  0  0
 11 46  1  0  0  0  0
 14 47  1  0  0  0  0
 14 48  1  0  0  0  0
 15 49  1  0  0  0  0
 16 50  1  0  0  0  0
 16 51  1  0  0  0  0
 18 52  1  0  0  0  0
 18 53  1  0  0  0  0
 18 54  1  0  0  0  0
 19 55  1  0  0  0  0
 20 56  1  0  0  0  0
 20 57  1  0  0  0  0
 21 58  1  0  0  0  0
 21 59  1  0  0  0  0
 23 60  1  0  0  0  0
 23 61  1  0  0  0  0
 24 62  1  0  0  0  0
 24 63  1  0  0  0  0
 26 64  1  0  0  0  0
 26 65  1  0  0  0  0
 26 66  1  0  0  0  0
 27 67  1  0  0  0  0
 27 68  1  0  0  0  0
 28 69  1  0  0  0  0
 28 70  1  0  0  0  0
 29 71  1  0  0  0  0
 31 72  1  0  0  0  0
 31 73  1  0  0  0  0
 31 74  1  0  0  0  0
 32 75  1  0  0  0  0
 32 76  1  0  0  0  0
 32 77  1  0  0  0  0
M  END
>  <energy>
220.27661792291934

$$$$
