CCCCN(CC)CCCC1OCC(O)C2=C1N=C1OC(=S)N2c2cc3c(cc2S1)OCO3
                    3D

 62 66  0  0  0  0  0  0  0  0999 V2000
   -3.2364    3.3571    0.2322 C   0  0  0  0  0  0  0  0  0  0  0  0
   -3.4516    2.4709    1.4525 C   0  0  0  0  0  0  0  0  0  0  0  0
   -3.0765    1.0100    1.1882 C   0  0  0  0  0  0  0  0  0  0  0  0
   -4.2244    0.1636    0.6072 C   0  0  0  0  0  0  0  0  0  0  0  0
   -3.6991   -1.0422   -0.0367 N   0  0  0  0  0  0  0  0  0  0  0  0
   -4.5687   -1.6376   -1.0500 C   0  0  0  0  0  0  0  0  0  0  0  0
   -4.4212   -0.8636   -2.3570 C   0  0  0  0  0  0  0  0  0  0  0  0
   -3.0256   -2.0176    0.8362 C   0  0  0  0  0  0  0  0  0  0  0  0
   -1.6748   -2.2834    0.1652 C   0  0  0  0  0  0  0  0  0  0  0  0
   -0.6889   -3.2060    0.9004 C   0  0  0  0  0  0  0  0  0  0  0  0
    0.7518   -3.1208    0.3025 C   0  0  0  0  0  0  0  0  0  0  0  0
    0.6246   -3.2318   -1.1279 O   0  0  0  0  0  0  0  0  0  0  0  0
    1.6461   -2.5458   -1.8574 C   0  0  0  0  0  0  0  0  0  0  0  0
    1.5590   -1.0388   -1.5630 C   0  0  0  0  0  0  0  0  0  0  0  0
    0.3564   -0.4760   -2.0716 O   0  0  0  0  0  0  0  0  0  0  0  0
    1.6269   -0.7926   -0.0805 C   0  0  0  0  0  0  0  0  0  0  0  0
    1.4355   -1.8339    0.7679 C   0  0  0  0  0  0  0  0  0  0  0  0
    2.1826   -1.8934    1.9366 N   0  0  0  0  0  0  0  0  0  0  0  0
    2.2928   -0.7539    2.5499 C   0  0  0  0  0  0  0  0  0  0  0  0
    1.2689    0.1350    2.5993 O   0  0  0  0  0  0  0  0  0  0  0  0
    1.3081    0.9751    1.5414 C   0  0  0  0  0  0  0  0  0  0  0  0
    0.6838    2.5056    1.7773 S   0  0  0  0  0  0  0  0  0  0  0  0
    1.9387    0.5119    0.3712 N   0  0  0  0  0  0  0  0  0  0  0  0
    3.3010    0.9645    0.2802 C   0  0  0  0  0  0  0  0  0  0  0  0
    3.6218    1.7238   -0.8523 C   0  0  0  0  0  0  0  0  0  0  0  0
    4.8354    2.3669   -0.8617 C   0  0  0  0  0  0  0  0  0  0  0  0
    5.7235    2.2941    0.1981 C   0  0  0  0  0  0  0  0  0  0  0  0
    5.4522    1.5358    1.3242 C   0  0  0  0  0  0  0  0  0  0  0  0
    4.2269    0.8429    1.3828 C   0  0  0  0  0  0  0  0  0  0  0  0
    3.9192   -0.1593    2.9026 S   0  0  0  0  0  0  0  0  0  0  0  0
    6.8250    3.0627   -0.0165 O   0  0  0  0  0  0  0  0  0  0  0  0
    6.5564    3.5852   -1.3369 C   0  0  0  0  0  0  0  0  0  0  0  0
    5.2769    3.1783   -1.8650 O   0  0  0  0  0  0  0  0  0  0  0  0
   -2.2073    3.2744   -0.1368 H   0  0  0  0  0  0  0  0  0  0  0  0
   -3.9141    3.0943   -0.5868 H   0  0  0  0  0  0  0  0  0  0  0  0
   -3.4086    4.4062    0.4917 H   0  0  0  0  0  0  0  0  0  0  0  0
   -4.4847    2.5568    1.8058 H   0  0  0  0  0  0  0  0  0  0  0  0
   -2.8100    2.8538    2.2555 H   0  0  0  0  0  0  0  0  0  0  0  0
   -2.2018    0.9793    0.5253 H   0  0  0  0  0  0  0  0  0  0  0  0
   -2.7640    0.5694    2.1422 H   0  0  0  0  0  0  0  0  0  0  0  0
   -4.9423   -0.1024    1.3945 H   0  0  0  0  0  0  0  0  0  0  0  0
   -4.7755    0.7799   -0.1192 H   0  0  0  0  0  0  0  0  0  0  0  0
   -4.2725   -2.6736   -1.2631 H   0  0  0  0  0  0  0  0  0  0  0  0
   -5.6179   -1.6746   -0.7193 H   0  0  0  0  0  0  0  0  0  0  0  0
   -3.4097   -0.9891   -2.7586 H   0  0  0  0  0  0  0  0  0  0  0  0
   -4.5954    0.2070   -2.2315 H   0  0  0  0  0  0  0  0  0  0  0  0
   -5.1239   -1.2287   -3.1085 H   0  0  0  0  0  0  0  0  0  0  0  0
   -2.8689   -1.6095    1.8418 H   0  0  0  0  0  0  0  0  0  0  0  0
   -3.6155   -2.9363    0.9690 H   0  0  0  0  0  0  0  0  0  0  0  0
   -1.1903   -1.3165    0.0088 H   0  0  0  0  0  0  0  0  0  0  0  0
   -1.8605   -2.6973   -0.8318 H   0  0  0  0  0  0  0  0  0  0  0  0
   -0.6706   -2.9837    1.9758 H   0  0  0  0  0  0  0  0  0  0  0  0
   -1.0588   -4.2324    0.7881 H   0  0  0  0  0  0  0  0  0  0  0  0
    1.3393   -3.9814    0.6413 H   0  0  0  0  0  0  0  0  0  0  0  0
    1.4632   -2.7417   -2.9188 H   0  0  0  0  0  0  0  0  0  0  0  0
    2.6272   -2.9610   -1.5997 H   0  0  0  0  0  0  0  0  0  0  0  0
    2.3867   -0.5471   -2.0733 H   0  0  0  0  0  0  0  0  0  0  0  0
   -0.3618   -1.1168   -1.8910 H   0  0  0  0  0  0  0  0  0  0  0  0
    2.9031    1.8703   -1.6591 H   0  0  0  0  0  0  0  0  0  0  0  0
    6.1662    1.5098    2.1424 H   0  0  0  0  0  0  0  0  0  0  0  0
    6.5854    4.6803   -1.3083 H   0  0  0  0  0  0  0  0  0  0  0  0
    7.3365    3.2242   -2.0159 H   0  0  0  0  0  0  0  0  0  0  0  0
  2  1  1  0  0  0  0
  3  2  1  0  0  0  0
  4  3  1  0  0  0  0
  5  4  1  0  0  0  0
  6  5  1  0  0  0  0
  7  6  1  0  0  0  0
  8  5  1  0  0  0  0
  9  8  1  0  0  0  0
 10  9  1  0  0  0  0
 11 10  1  0  0  0  0
 12 11  1  0  0  0  0
 13 12  1  0  0  0  0
 14 13  1  0  0  0  0
 15 14  1  0  0  0  0
 16 14  1  0  0  0  0
 17 16  2  0  0  0  0
 17 11  1  0  0  0  0
 18 17  1  0  0  0  0
 19 18  2  0  0  0  0
 20 19  1  0  0  0  0
 21 20  1  0  0  0  0
 22 21  2  0  0  0  0
 23 21  1  0  0  0  0
 23 16  1  0  0  0  0
 24 23  1  0  0  0  0
 25 24  2  0  0  0  0
 26 25  1  0  0  0  0
 27 26  2  0  0  0  0
 28 27  1  0  0  0  0
 29 28  2  0  0  0  0
 29 24  1  0  0  0  0
 30 29  1  0  0  0  0
 30 19  1  0  0  0  0
 31 27  1  0  0  0  0
 32 31  1  0  0  0  0
 33 32  1  0  0  0  0
 33 26  1  0  0  0  0
  1 34  1  0  0  0  0
  1 35  1  0  0  0  0
  1 36  1  0  0  0  0
  2 37  1  0  0  0  0
  2 38  1  0  0  0  0
  3 39  1  0  0  0  0
  3 40  1  0  0  0  0
  4 41  1  0  0  0  0
  4 42  1  0  0  0  0
  6 43  1  0  0  0  0
  6 44  1  0  0  0  0
  7 45  1  0  0  0  0
  7 46  1  0  0  0  0
  7 47  1  0  0  0  0
  8 48  1  0  0  0  0
  8 49  1  0  0  0  0
  9 50  1  0  0  0  0
  9 51  1  0  0  0  0
 10 52  1  0  0  0  0
 10 53  1  0  0  0  0
 11 54  1  0  0  0  0
 13 55  1  0  0  0  0
 13 56  1  0  0  0  0
 14 57  1  0  0  0  0
 15 58  1  0  0  0  0
 25 59  1  0  0  0  0
 28 60  1  0  0  0  0
 32 61  1  0  0  0  0
 32 62  1  0  0  0  0
M  END
>  <energy>
162.56411797588751

$$$$
