C=C(OC(=CC)CC(C)(C)C1OC(=O)C1=C)C1Oc2cc(co2)CC2OC3OC2(COC(C)O)C31
                    3D

 67 71  0  0  0  0  0  0  0  0999 V2000
   -1.2309    3.2825   -0.6524 C   0  0  0  0  0  0  0  0  0  0  0  0
   -0.4422    2.2011   -0.5277 C   0  0  0  0  0  0  0  0  0  0  0  0
   -0.3713    1.3545    0.5833 O   0  0  0  0  0  0  0  0  0  0  0  0
   -1.1576    1.4430    1.7149 C   0  0  0  0  0  0  0  0  0  0  0  0
   -1.0931    2.4452    2.6049 C   0  0  0  0  0  0  0  0  0  0  0  0
   -0.1427    3.5928    2.6080 C   0  0  0  0  0  0  0  0  0  0  0  0
   -1.7941    0.1166    2.1206 C   0  0  0  0  0  0  0  0  0  0  0  0
   -3.0987   -0.3462    1.4211 C   0  0  0  0  0  0  0  0  0  0  0  0
   -4.1879    0.7298    1.5735 C   0  0  0  0  0  0  0  0  0  0  0  0
   -3.5899   -1.6350    2.1327 C   0  0  0  0  0  0  0  0  0  0  0  0
   -2.7914   -0.5927   -0.0693 C   0  0  0  0  0  0  0  0  0  0  0  0
   -1.8205   -1.6636   -0.2481 O   0  0  0  0  0  0  0  0  0  0  0  0
   -2.6876   -2.3945   -0.9818 C   0  0  0  0  0  0  0  0  0  0  0  0
   -2.5652   -3.4902   -1.4748 O   0  0  0  0  0  0  0  0  0  0  0  0
   -3.7423   -1.4029   -0.9030 C   0  0  0  0  0  0  0  0  0  0  0  0
   -4.9700   -1.2992   -1.4016 C   0  0  0  0  0  0  0  0  0  0  0  0
    0.4141    1.7144   -1.7133 C   0  0  0  0  0  0  0  0  0  0  0  0
   -0.5040    0.7627   -2.2900 O   0  0  0  0  0  0  0  0  0  0  0  0
   -0.0871    0.0326   -3.2974 C   0  0  0  0  0  0  0  0  0  0  0  0
    1.0916   -0.0149   -3.9849 C   0  0  0  0  0  0  0  0  0  0  0  0
    1.4524   -1.3375   -3.6000 C   0  0  0  0  0  0  0  0  0  0  0  0
    0.2622   -2.0640   -3.5445 C   0  0  0  0  0  0  0  0  0  0  0  0
   -0.7506   -1.1526   -3.4376 O   0  0  0  0  0  0  0  0  0  0  0  0
    2.7703   -1.7381   -3.0530 C   0  0  0  0  0  0  0  0  0  0  0  0
    3.3604   -0.6656   -2.1142 C   0  0  0  0  0  0  0  0  0  0  0  0
    3.6463    0.6070   -2.7278 O   0  0  0  0  0  0  0  0  0  0  0  0
    3.2271    1.5434   -1.6911 C   0  0  0  0  0  0  0  0  0  0  0  0
    3.6371    0.9064   -0.3576 O   0  0  0  0  0  0  0  0  0  0  0  0
    2.5606   -0.1210   -0.9070 C   0  0  0  0  0  0  0  0  0  0  0  0
    2.0946   -1.0718    0.1733 C   0  0  0  0  0  0  0  0  0  0  0  0
    3.2227   -1.7346    0.7467 O   0  0  0  0  0  0  0  0  0  0  0  0
    3.2674   -1.6686    2.1641 C   0  0  0  0  0  0  0  0  0  0  0  0
    4.4415   -0.8110    2.6195 C   0  0  0  0  0  0  0  0  0  0  0  0
    3.4174   -2.9929    2.6435 O   0  0  0  0  0  0  0  0  0  0  0  0
    1.7691    1.2722   -1.1206 C   0  0  0  0  0  0  0  0  0  0  0  0
   -1.2703    3.8477   -1.5799 H   0  0  0  0  0  0  0  0  0  0  0  0
   -1.8898    3.6087    0.1385 H   0  0  0  0  0  0  0  0  0  0  0  0
   -1.7177    2.3880    3.4922 H   0  0  0  0  0  0  0  0  0  0  0  0
    0.4863    3.6558    1.7166 H   0  0  0  0  0  0  0  0  0  0  0  0
   -0.7157    4.5165    2.7149 H   0  0  0  0  0  0  0  0  0  0  0  0
    0.5280    3.4976    3.4720 H   0  0  0  0  0  0  0  0  0  0  0  0
   -1.0298   -0.6643    1.9855 H   0  0  0  0  0  0  0  0  0  0  0  0
   -1.9868    0.1374    3.2043 H   0  0  0  0  0  0  0  0  0  0  0  0
   -4.3984    0.9103    2.6346 H   0  0  0  0  0  0  0  0  0  0  0  0
   -3.8892    1.6839    1.1253 H   0  0  0  0  0  0  0  0  0  0  0  0
   -5.1252    0.4268    1.0945 H   0  0  0  0  0  0  0  0  0  0  0  0
   -3.7016   -1.4622    3.2104 H   0  0  0  0  0  0  0  0  0  0  0  0
   -2.8865   -2.4659    2.0115 H   0  0  0  0  0  0  0  0  0  0  0  0
   -4.5642   -1.9686    1.7570 H   0  0  0  0  0  0  0  0  0  0  0  0
   -2.4674    0.3179   -0.5820 H   0  0  0  0  0  0  0  0  0  0  0  0
   -5.5729   -0.4174   -1.2179 H   0  0  0  0  0  0  0  0  0  0  0  0
   -5.3697   -2.0955   -2.0211 H   0  0  0  0  0  0  0  0  0  0  0  0
    0.5865    2.5207   -2.4351 H   0  0  0  0  0  0  0  0  0  0  0  0
    1.7871    0.8136   -4.0870 H   0  0  0  0  0  0  0  0  0  0  0  0
   -0.0264   -3.0829   -3.3260 H   0  0  0  0  0  0  0  0  0  0  0  0
    3.4794   -1.9263   -3.8835 H   0  0  0  0  0  0  0  0  0  0  0  0
    2.6376   -2.6615   -2.4563 H   0  0  0  0  0  0  0  0  0  0  0  0
    4.3141   -1.0736   -1.7572 H   0  0  0  0  0  0  0  0  0  0  0  0
    3.5868    2.5726   -1.7917 H   0  0  0  0  0  0  0  0  0  0  0  0
    1.4425   -1.8411   -0.2522 H   0  0  0  0  0  0  0  0  0  0  0  0
    1.5121   -0.5251    0.9276 H   0  0  0  0  0  0  0  0  0  0  0  0
    2.3392   -1.2863    2.5998 H   0  0  0  0  0  0  0  0  0  0  0  0
    4.3524    0.2250    2.2751 H   0  0  0  0  0  0  0  0  0  0  0  0
    5.3820   -1.1986    2.2176 H   0  0  0  0  0  0  0  0  0  0  0  0
    4.5269   -0.8093    3.7105 H   0  0  0  0  0  0  0  0  0  0  0  0
    4.2584   -3.3026    2.2637 H   0  0  0  0  0  0  0  0  0  0  0  0
    1.7844    1.8513   -0.1694 H   0  0  0  0  0  0  0  0  0  0  0  0
  2  1  2  0  0  0  0
  3  2  1  0  0  0  0
  4  3  1  0  0  0  0
  5  4  2  0  0  0  0
  6  5  1  0  0  0  0
  7  4  1  0  0  0  0
  8  7  1  0  0  0  0
  9  8  1  0  0  0  0
 10  8  1  0  0  0  0
 11  8  1  0  0  0  0
 12 11  1  0  0  0  0
 13 12  1  0  0  0  0
 14 13  2  0  0  0  0
 15 13  1  0  0  0  0
 15 11  1  0  0  0  0
 16 15  2  0  0  0  0
 17  2  1  0  0  0  0
 18 17  1  0  0  0  0
 19 18  1  0  0  0  0
 20 19  2  0  0  0  0
 21 20  1  0  0  0  0
 22 21  2  0  0  0  0
 23 22  1  0  0  0  0
 23 19  1  0  0  0  0
 24 21  1  0  0  0  0
 25 24  1  0  0  0  0
 26 25  1  0  0  0  0
 27 26  1  0  0  0  0
 28 27  1  0  0  0  0
 29 28  1  0  0  0  0
 29 25  1  0  0  0  0
 30 29  1  0  0  0  0
 31 30  1  0  0  0  0
 32 31  1  0  0  0  0
 33 32  1  0  0  0  0
 34 32  1  0  0  0  0
 35 29  1  0  0  0  0
 35 27  1  0  0  0  0
 35 17  1  0  0  0  0
  1 36  1  0  0  0  0
  1 37  1  0  0  0  0
  5 38  1  0  0  0  0
  6 39  1  0  0  0  0
  6 40  1  0  0  0  0
  6 41  1  0  0  0  0
  7 42  1  0  0  0  0
  7 43  1  0  0  0  0
  9 44  1  0  0  0  0
  9 45  1  0  0  0  0
  9 46  1  0  0  0  0
 10 47  1  0  0  0  0
 10 48  1  0  0  0  0
 10 49  1  0  0  0  0
 11 50  1  0  0  0  0
 16 51  1  0  0  0  0
 16 52  1  0  0  0  0
 17 53  1  0  0  0  0
 20 54  1  0  0  0  0
 22 55  1  0  0  0  0
 24 56  1  0  0  0  0
 24 57  1  0  0  0  0
 25 58  1  0  0  0  0
 27 59  1  0  0  0  0
 30 60  1  0  0  0  0
 30 61  1  0  0  0  0
 32 62  1  0  0  0  0
 33 63  1  0  0  0  0
 33 64  1  0  0  0  0
 33 65  1  0  0  0  0
 34 66  1  0  0  0  0
 35 67  1  0  0  0  0
M  END
>  <energy>
127.04394807306464

$$$$
