C#CC(C)=C1CC2(O)Cc3c(c(C(C)C)nc4c5nc(c(c6ccccc65)c34)C2c2ccccc2)N1
                    3D

 63 69  0  0  0  0  0  0  0  0999 V2000
    6.0835   -0.2042    0.7616 C   0  0  0  0  0  0  0  0  0  0  0  0
    5.1780   -0.4801    0.0315 C   0  0  0  0  0  0  0  0  0  0  0  0
    4.1141   -0.7429   -0.9003 C   0  0  0  0  0  0  0  0  0  0  0  0
    4.5638   -0.9211   -2.3315 C   0  0  0  0  0  0  0  0  0  0  0  0
    2.8154   -0.7447   -0.4797 C   0  0  0  0  0  0  0  0  0  0  0  0
    1.6421   -0.8590   -1.6023 C   0  0  0  0  0  0  0  0  0  0  0  0
    0.3081   -0.3360   -1.0623 C   0  0  0  0  0  0  0  0  0  0  0  0
    0.0707   -1.4611   -0.1200 O   0  0  0  0  0  0  0  0  0  0  0  0
    0.7763    1.0712   -0.5020 C   0  0  0  0  0  0  0  0  0  0  0  0
    0.5070    0.8690    0.9492 C   0  0  0  0  0  0  0  0  0  0  0  0
    1.3184   -0.1078    1.5943 C   0  0  0  0  0  0  0  0  0  0  0  0
    0.6826   -0.8497    2.6219 C   0  0  0  0  0  0  0  0  0  0  0  0
    1.2029   -2.1566    3.2413 C   0  0  0  0  0  0  0  0  0  0  0  0
    1.1015   -2.1205    4.7769 C   0  0  0  0  0  0  0  0  0  0  0  0
    2.5676   -2.7317    2.8552 C   0  0  0  0  0  0  0  0  0  0  0  0
   -0.6648   -0.6661    2.9131 N   0  0  0  0  0  0  0  0  0  0  0  0
   -1.4323    0.1671    2.1360 C   0  0  0  0  0  0  0  0  0  0  0  0
   -2.7445   -0.0467    1.7347 C   0  0  0  0  0  0  0  0  0  0  0  0
   -2.7593   -0.4570    0.4383 N   0  0  0  0  0  0  0  0  0  0  0  0
   -2.1063    0.4176   -0.4091 C   0  0  0  0  0  0  0  0  0  0  0  0
   -1.7581    1.5564    0.2762 C   0  0  0  0  0  0  0  0  0  0  0  0
   -2.8687    2.0805    0.9360 C   0  0  0  0  0  0  0  0  0  0  0  0
   -3.4039    3.3897    0.8587 C   0  0  0  0  0  0  0  0  0  0  0  0
   -4.4517    3.7559    1.7115 C   0  0  0  0  0  0  0  0  0  0  0  0
   -4.9578    2.8362    2.6417 C   0  0  0  0  0  0  0  0  0  0  0  0
   -4.4462    1.5359    2.7080 C   0  0  0  0  0  0  0  0  0  0  0  0
   -3.4099    1.1539    1.8272 C   0  0  0  0  0  0  0  0  0  0  0  0
   -0.8587    1.0613    1.2335 C   0  0  0  0  0  0  0  0  0  0  0  0
   -1.1871   -0.1966   -1.5718 C   0  0  0  0  0  0  0  0  0  0  0  0
   -1.4929    0.2909   -2.9742 C   0  0  0  0  0  0  0  0  0  0  0  0
   -2.6805   -0.1888   -3.5728 C   0  0  0  0  0  0  0  0  0  0  0  0
   -2.9801    0.0670   -4.9100 C   0  0  0  0  0  0  0  0  0  0  0  0
   -2.1069    0.8307   -5.6774 C   0  0  0  0  0  0  0  0  0  0  0  0
   -0.9547    1.3571   -5.0905 C   0  0  0  0  0  0  0  0  0  0  0  0
   -0.6448    1.0879   -3.7499 C   0  0  0  0  0  0  0  0  0  0  0  0
    2.5098   -0.5468    0.9128 N   0  0  0  0  0  0  0  0  0  0  0  0
    6.8830    0.0786    1.4094 H   0  0  0  0  0  0  0  0  0  0  0  0
    3.8532   -1.4835   -2.9447 H   0  0  0  0  0  0  0  0  0  0  0  0
    4.7187    0.0567   -2.7986 H   0  0  0  0  0  0  0  0  0  0  0  0
    5.5167   -1.4656   -2.3820 H   0  0  0  0  0  0  0  0  0  0  0  0
    1.9400   -0.2795   -2.4788 H   0  0  0  0  0  0  0  0  0  0  0  0
    1.5790   -1.9151   -1.8843 H   0  0  0  0  0  0  0  0  0  0  0  0
   -0.2129   -2.2520   -0.6022 H   0  0  0  0  0  0  0  0  0  0  0  0
    0.2380    1.9048   -0.9690 H   0  0  0  0  0  0  0  0  0  0  0  0
    1.8177    1.3725   -0.6720 H   0  0  0  0  0  0  0  0  0  0  0  0
    0.4837   -2.9201    2.9080 H   0  0  0  0  0  0  0  0  0  0  0  0
    1.3720   -3.0892    5.2081 H   0  0  0  0  0  0  0  0  0  0  0  0
    0.0809   -1.9032    5.1113 H   0  0  0  0  0  0  0  0  0  0  0  0
    1.7660   -1.3592    5.1971 H   0  0  0  0  0  0  0  0  0  0  0  0
    2.7205   -3.7108    3.3352 H   0  0  0  0  0  0  0  0  0  0  0  0
    2.6360   -2.9209    1.7795 H   0  0  0  0  0  0  0  0  0  0  0  0
    3.3922   -2.0841    3.1692 H   0  0  0  0  0  0  0  0  0  0  0  0
   -2.9922    4.1226    0.1681 H   0  0  0  0  0  0  0  0  0  0  0  0
   -4.8645    4.7621    1.6703 H   0  0  0  0  0  0  0  0  0  0  0  0
   -5.7490    3.1407    3.3229 H   0  0  0  0  0  0  0  0  0  0  0  0
   -4.8324    0.8310    3.4386 H   0  0  0  0  0  0  0  0  0  0  0  0
   -1.5591   -1.2375   -1.6228 H   0  0  0  0  0  0  0  0  0  0  0  0
   -3.3789   -0.7993   -2.9962 H   0  0  0  0  0  0  0  0  0  0  0  0
   -3.8794   -0.3506   -5.3559 H   0  0  0  0  0  0  0  0  0  0  0  0
   -2.3273    1.0185   -6.7268 H   0  0  0  0  0  0  0  0  0  0  0  0
   -0.2872    1.9652   -5.6923 H   0  0  0  0  0  0  0  0  0  0  0  0
    0.2676    1.5095   -3.3419 H   0  0  0  0  0  0  0  0  0  0  0  0
    3.2852   -0.7026    1.5439 H   0  0  0  0  0  0  0  0  0  0  0  0
  2  1  3  0  0  0  0
  3  2  1  0  0  0  0
  4  3  1  0  0  0  0
  5  3  2  0  0  0  0
  6  5  1  0  0  0  0
  7  6  1  0  0  0  0
  8  7  1  0  0  0  0
  9  7  1  0  0  0  0
 10  9  1  0  0  0  0
 11 10  2  0  0  0  0
 12 11  1  0  0  0  0
 13 12  1  0  0  0  0
 14 13  1  0  0  0  0
 15 13  1  0  0  0  0
 16 12  2  0  0  0  0
 17 16  1  0  0  0  0
 18 17  2  0  0  0  0
 19 18  1  0  0  0  0
 20 19  2  0  0  0  0
 21 20  1  0  0  0  0
 22 21  1  0  0  0  0
 23 22  2  0  0  0  0
 24 23  1  0  0  0  0
 25 24  2  0  0  0  0
 26 25  1  0  0  0  0
 27 26  2  0  0  0  0
 27 22  1  0  0  0  0
 27 18  1  0  0  0  0
 28 21  2  0  0  0  0
 28 10  1  0  0  0  0
 28 17  1  0  0  0  0
 29 20  1  0  0  0  0
 29  7  1  0  0  0  0
 30 29  1  0  0  0  0
 31 30  2  0  0  0  0
 32 31  1  0  0  0  0
 33 32  2  0  0  0  0
 34 33  1  0  0  0  0
 35 34  2  0  0  0  0
 35 30  1  0  0  0  0
 36 11  1  0  0  0  0
 36  5  1  0  0  0  0
  1 37  1  0  0  0  0
  4 38  1  0  0  0  0
  4 39  1  0  0  0  0
  4 40  1  0  0  0  0
  6 41  1  0  0  0  0
  6 42  1  0  0  0  0
  8 43  1  0  0  0  0
  9 44  1  0  0  0  0
  9 45  1  0  0  0  0
 13 46  1  0  0  0  0
 14 47  1  0  0  0  0
 14 48  1  0  0  0  0
 14 49  1  0  0  0  0
 15 50  1  0  0  0  0
 15 51  1  0  0  0  0
 15 52  1  0  0  0  0
 23 53  1  0  0  0  0
 24 54  1  0  0  0  0
 25 55  1  0  0  0  0
 26 56  1  0  0  0  0
 29 57  1  0  0  0  0
 31 58  1  0  0  0  0
 32 59  1  0  0  0  0
 33 60  1  0  0  0  0
 34 61  1  0  0  0  0
 35 62  1  0  0  0  0
 36 63  1  0  0  0  0
M  END
>  <energy>
519.97419008441648

$$$$
