C=c1c2cccc3c4ccccc4c1[n+]([O-])c1ccc4c3c(c2)[nH]c(=O)n4c2c3ccc(C)cc3[nH]c21
                    3D

 57 64  0  0  0  0  0  0  0  0999 V2000
   -4.6003    1.5420   -0.6721 C   0  0  0  0  0  0  0  0  0  0  0  0
   -3.5607    0.8556   -0.1755 C   0  0  0  0  0  0  0  0  0  0  0  0
   -3.6476    0.4090    1.2908 C   0  0  0  0  0  0  0  0  0  0  0  0
   -4.0824   -0.9935    1.5233 C   0  0  0  0  0  0  0  0  0  0  0  0
   -3.2928   -2.0415    1.8367 C   0  0  0  0  0  0  0  0  0  0  0  0
   -1.8567   -1.8792    2.0816 C   0  0  0  0  0  0  0  0  0  0  0  0
   -1.1960   -1.0663    1.2173 C   0  0  0  0  0  0  0  0  0  0  0  0
   -1.1544   -1.5160   -0.1815 C   0  0  0  0  0  0  0  0  0  0  0  0
   -0.5372   -2.7506   -0.4670 C   0  0  0  0  0  0  0  0  0  0  0  0
   -0.5382   -3.2788   -1.7583 C   0  0  0  0  0  0  0  0  0  0  0  0
   -1.1699   -2.5862   -2.7845 C   0  0  0  0  0  0  0  0  0  0  0  0
   -1.7579   -1.3488   -2.5216 C   0  0  0  0  0  0  0  0  0  0  0  0
   -1.7377   -0.8008   -1.2242 C   0  0  0  0  0  0  0  0  0  0  0  0
   -2.2923    0.5692   -1.0985 C   0  0  0  0  0  0  0  0  0  0  0  0
   -1.7019    1.4788   -1.8969 N   0  3  0  0  0  0  0  0  0  0  0  0
   -2.4668    2.2096   -2.6318 O   0  5  0  0  0  0  0  0  0  0  0  0
   -0.2315    2.0024   -1.6354 C   0  0  0  0  0  0  0  0  0  0  0  0
   -0.4275    3.0988   -0.8369 C   0  0  0  0  0  0  0  0  0  0  0  0
   -1.0709    2.6613    0.4548 C   0  0  0  0  0  0  0  0  0  0  0  0
   -0.5207    1.4834    0.8854 C   0  0  0  0  0  0  0  0  0  0  0  0
   -1.0445    0.3381    1.6151 C   0  0  0  0  0  0  0  0  0  0  0  0
   -1.5963    0.8261    2.7254 C   0  0  0  0  0  0  0  0  0  0  0  0
   -3.0663    1.1575    2.3230 C   0  0  0  0  0  0  0  0  0  0  0  0
   -0.6351    1.7159    3.3255 N   0  0  0  0  0  0  0  0  0  0  0  0
    0.8119    1.6714    2.7523 C   0  0  0  0  0  0  0  0  0  0  0  0
    1.7996    1.7505    3.4732 O   0  0  0  0  0  0  0  0  0  0  0  0
    0.7455    1.6077    1.3136 N   0  0  0  0  0  0  0  0  0  0  0  0
    1.5190    1.1974    0.1977 C   0  0  0  0  0  0  0  0  0  0  0  0
    2.7765    0.5639    0.1021 C   0  0  0  0  0  0  0  0  0  0  0  0
    3.7573    0.1917    1.0372 C   0  0  0  0  0  0  0  0  0  0  0  0
    4.9073   -0.4731    0.6040 C   0  0  0  0  0  0  0  0  0  0  0  0
    5.0837   -0.8060   -0.7383 C   0  0  0  0  0  0  0  0  0  0  0  0
    6.3267   -1.5489   -1.1332 C   0  0  0  0  0  0  0  0  0  0  0  0
    4.1066   -0.4613   -1.6848 C   0  0  0  0  0  0  0  0  0  0  0  0
    2.9642    0.2282   -1.2458 C   0  0  0  0  0  0  0  0  0  0  0  0
    1.8715    0.6815   -1.9717 N   0  0  0  0  0  0  0  0  0  0  0  0
    0.9664    1.2737   -1.1378 C   0  0  0  0  0  0  0  0  0  0  0  0
   -4.6336    1.9096   -1.6911 H   0  0  0  0  0  0  0  0  0  0  0  0
   -5.4726    1.7532   -0.0611 H   0  0  0  0  0  0  0  0  0  0  0  0
   -5.1425   -1.1648    1.3432 H   0  0  0  0  0  0  0  0  0  0  0  0
   -3.7045   -3.0402    1.9413 H   0  0  0  0  0  0  0  0  0  0  0  0
   -1.7443   -1.7372    3.1613 H   0  0  0  0  0  0  0  0  0  0  0  0
   -0.0499   -3.3138    0.3269 H   0  0  0  0  0  0  0  0  0  0  0  0
   -0.0596   -4.2345   -1.9540 H   0  0  0  0  0  0  0  0  0  0  0  0
   -1.1969   -3.0019   -3.7889 H   0  0  0  0  0  0  0  0  0  0  0  0
   -2.2445   -0.8173   -3.3373 H   0  0  0  0  0  0  0  0  0  0  0  0
    0.4019    3.7748   -0.6083 H   0  0  0  0  0  0  0  0  0  0  0  0
   -1.1004    3.5089    1.1467 H   0  0  0  0  0  0  0  0  0  0  0  0
   -3.0842    2.2464    2.2068 H   0  0  0  0  0  0  0  0  0  0  0  0
   -0.6792    1.7953    4.3351 H   0  0  0  0  0  0  0  0  0  0  0  0
    3.6293    0.4297    2.0892 H   0  0  0  0  0  0  0  0  0  0  0  0
    5.6747   -0.7294    1.3307 H   0  0  0  0  0  0  0  0  0  0  0  0
    7.2157   -0.9736   -0.8575 H   0  0  0  0  0  0  0  0  0  0  0  0
    6.3660   -1.7245   -2.2132 H   0  0  0  0  0  0  0  0  0  0  0  0
    6.3650   -2.5195   -0.6264 H   0  0  0  0  0  0  0  0  0  0  0  0
    4.2367   -0.7141   -2.7336 H   0  0  0  0  0  0  0  0  0  0  0  0
    1.7721    0.5899   -2.9730 H   0  0  0  0  0  0  0  0  0  0  0  0
  2  1  2  0  0  0  0
  3  2  1  0  0  0  0
  4  3  1  0  0  0  0
  5  4  2  0  0  0  0
  6  5  1  0  0  0  0
  7  6  2  0  0  0  0
  8  7  1  0  0  0  0
  9  8  2  0  0  0  0
 10  9  1  0  0  0  0
 11 10  2  0  0  0  0
 12 11  1  0  0  0  0
 13 12  2  0  0  0  0
 13  8  1  0  0  0  0
 14 13  1  0  0  0  0
 14  2  1  0  0  0  0
 15 14  2  0  0  0  0
 16 15  1  0  0  0  0
 17 15  1  0  0  0  0
 18 17  2  0  0  0  0
 19 18  1  0  0  0  0
 20 19  2  0  0  0  0
 21 20  1  0  0  0  0
 21  7  1  0  0  0  0
 22 21  2  0  0  0  0
 23 22  1  0  0  0  0
 23  3  2  0  0  0  0
 24 22  1  0  0  0  0
 25 24  1  0  0  0  0
 26 25  2  0  0  0  0
 27 25  1  0  0  0  0
 27 20  1  0  0  0  0
 28 27  1  0  0  0  0
 29 28  1  0  0  0  0
 30 29  1  0  0  0  0
 31 30  2  0  0  0  0
 32 31  1  0  0  0  0
 33 32  1  0  0  0  0
 34 32  2  0  0  0  0
 35 34  1  0  0  0  0
 35 29  2  0  0  0  0
 36 35  1  0  0  0  0
 37 36  1  0  0  0  0
 37 28  2  0  0  0  0
 37 17  1  0  0  0  0
  1 38  1  0  0  0  0
  1 39  1  0  0  0  0
  4 40  1  0  0  0  0
  5 41  1  0  0  0  0
  6 42  1  0  0  0  0
  9 43  1  0  0  0  0
 10 44  1  0  0  0  0
 11 45  1  0  0  0  0
 12 46  1  0  0  0  0
 18 47  1  0  0  0  0
 19 48  1  0  0  0  0
 23 49  1  0  0  0  0
 24 50  1  0  0  0  0
 30 51  1  0  0  0  0
 31 52  1  0  0  0  0
 33 53  1  0  0  0  0
 33 54  1  0  0  0  0
 33 55  1  0  0  0  0
 34 56  1  0  0  0  0
 36 57  1  0  0  0  0
M  CHG  2  15   1  16  -1
M  END
>  <energy>
531.40541563197337

$$$$
