COC12CCC3(C)CC(C=CCCCCCC(=O)O)C4(C)C(O)C15CC(C)C5(OC(=O)CN(C)C)C(=O)C42C3O
                    3D

 87 91  0  0  0  0  0  0  0  0999 V2000
   -0.1136    1.4343    4.2114 C   0  0  0  0  0  0  0  0  0  0  0  0
   -0.4222    2.3178    3.1518 O   0  0  0  0  0  0  0  0  0  0  0  0
    0.3043    2.3297    1.9264 C   0  0  0  0  0  0  0  0  0  0  0  0
    1.7687    2.6967    2.2599 C   0  0  0  0  0  0  0  0  0  0  0  0
    2.8701    1.5462    2.0185 C   0  0  0  0  0  0  0  0  0  0  0  0
    2.5745    0.2217    1.1546 C   0  0  0  0  0  0  0  0  0  0  0  0
    3.5279   -0.8758    1.6829 C   0  0  0  0  0  0  0  0  0  0  0  0
    2.7016    0.1890   -0.4448 C   0  0  0  0  0  0  0  0  0  0  0  0
    1.5224    0.8596   -1.2817 C   0  0  0  0  0  0  0  0  0  0  0  0
    0.4487   -0.0813   -1.7785 C   0  0  0  0  0  0  0  0  0  0  0  0
    0.5405   -0.9530   -2.7904 C   0  0  0  0  0  0  0  0  0  0  0  0
    1.7454   -1.2754   -3.6245 C   0  0  0  0  0  0  0  0  0  0  0  0
    1.9182   -2.7884   -3.7979 C   0  0  0  0  0  0  0  0  0  0  0  0
    2.3442   -3.4928   -2.5059 C   0  0  0  0  0  0  0  0  0  0  0  0
    2.3436   -5.0133   -2.6859 C   0  0  0  0  0  0  0  0  0  0  0  0
    2.8936   -5.7544   -1.4730 C   0  0  0  0  0  0  0  0  0  0  0  0
    2.0562   -5.5526   -0.2442 C   0  0  0  0  0  0  0  0  0  0  0  0
    2.3299   -4.8314    0.7029 O   0  0  0  0  0  0  0  0  0  0  0  0
    0.9121   -6.2601   -0.2648 O   0  0  0  0  0  0  0  0  0  0  0  0
    1.0338    1.9844   -0.3635 C   0  0  0  0  0  0  0  0  0  0  0  0
    2.3101    2.9637   -0.4637 C   0  0  0  0  0  0  0  0  0  0  0  0
   -0.0190    3.0801   -0.5702 C   0  0  0  0  0  0  0  0  0  0  0  0
   -0.7918    2.7483   -1.7032 O   0  0  0  0  0  0  0  0  0  0  0  0
   -0.6741    3.1349    0.8407 C   0  0  0  0  0  0  0  0  0  0  0  0
   -1.6313    4.2105    1.3907 C   0  0  0  0  0  0  0  0  0  0  0  0
   -2.6345    3.0842    1.8151 C   0  0  0  0  0  0  0  0  0  0  0  0
   -4.0874    3.5335    1.6943 C   0  0  0  0  0  0  0  0  0  0  0  0
   -1.9784    2.1598    0.7253 C   0  0  0  0  0  0  0  0  0  0  0  0
   -2.7227    2.2031   -0.5216 O   0  0  0  0  0  0  0  0  0  0  0  0
   -3.8728    1.5374   -0.7819 C   0  0  0  0  0  0  0  0  0  0  0  0
   -4.5313    1.8830   -1.7672 O   0  0  0  0  0  0  0  0  0  0  0  0
   -4.3496    0.3884    0.0922 C   0  0  0  0  0  0  0  0  0  0  0  0
   -3.9970   -0.9424   -0.4526 N   0  0  0  0  0  0  0  0  0  0  0  0
   -4.4385   -1.1299   -1.8360 C   0  0  0  0  0  0  0  0  0  0  0  0
   -4.5807   -1.9849    0.3961 C   0  0  0  0  0  0  0  0  0  0  0  0
   -1.1617    0.8201    0.9672 C   0  0  0  0  0  0  0  0  0  0  0  0
   -1.5867   -0.3015    1.2331 O   0  0  0  0  0  0  0  0  0  0  0  0
    0.3702    1.1556    0.9932 C   0  0  0  0  0  0  0  0  0  0  0  0
    1.1238   -0.1134    1.3755 C   0  0  0  0  0  0  0  0  0  0  0  0
    0.8846   -0.5631    2.6918 O   0  0  0  0  0  0  0  0  0  0  0  0
   -0.7052    0.5235    4.1077 H   0  0  0  0  0  0  0  0  0  0  0  0
   -0.4295    1.9082    5.1455 H   0  0  0  0  0  0  0  0  0  0  0  0
    0.9499    1.2191    4.3065 H   0  0  0  0  0  0  0  0  0  0  0  0
    1.8463    2.9380    3.3296 H   0  0  0  0  0  0  0  0  0  0  0  0
    2.0738    3.6550    1.8453 H   0  0  0  0  0  0  0  0  0  0  0  0
    3.8205    1.9965    1.7090 H   0  0  0  0  0  0  0  0  0  0  0  0
    3.0911    1.1967    3.0390 H   0  0  0  0  0  0  0  0  0  0  0  0
    4.5679   -0.6261    1.4450 H   0  0  0  0  0  0  0  0  0  0  0  0
    3.4587   -0.9949    2.7699 H   0  0  0  0  0  0  0  0  0  0  0  0
    3.3074   -1.8516    1.2355 H   0  0  0  0  0  0  0  0  0  0  0  0
    3.6678    0.6129   -0.7420 H   0  0  0  0  0  0  0  0  0  0  0  0
    2.7611   -0.8613   -0.7602 H   0  0  0  0  0  0  0  0  0  0  0  0
    1.9665    1.2776   -2.1959 H   0  0  0  0  0  0  0  0  0  0  0  0
   -0.5491    0.0139   -1.3562 H   0  0  0  0  0  0  0  0  0  0  0  0
   -0.3718   -1.4869   -3.0588 H   0  0  0  0  0  0  0  0  0  0  0  0
    1.5978   -0.8272   -4.6136 H   0  0  0  0  0  0  0  0  0  0  0  0
    2.6629   -0.8442   -3.2119 H   0  0  0  0  0  0  0  0  0  0  0  0
    0.9831   -3.2263   -4.1727 H   0  0  0  0  0  0  0  0  0  0  0  0
    2.6790   -2.9680   -4.5682 H   0  0  0  0  0  0  0  0  0  0  0  0
    1.6667   -3.2215   -1.6893 H   0  0  0  0  0  0  0  0  0  0  0  0
    3.3458   -3.1489   -2.2238 H   0  0  0  0  0  0  0  0  0  0  0  0
    2.9571   -5.2729   -3.5575 H   0  0  0  0  0  0  0  0  0  0  0  0
    1.3226   -5.3516   -2.8974 H   0  0  0  0  0  0  0  0  0  0  0  0
    2.9404   -6.8304   -1.6772 H   0  0  0  0  0  0  0  0  0  0  0  0
    3.9177   -5.4337   -1.2521 H   0  0  0  0  0  0  0  0  0  0  0  0
    0.4679   -6.0210    0.5747 H   0  0  0  0  0  0  0  0  0  0  0  0
    2.4723    3.2176   -1.5249 H   0  0  0  0  0  0  0  0  0  0  0  0
    3.2671    2.5721   -0.1376 H   0  0  0  0  0  0  0  0  0  0  0  0
    2.1870    3.9486   -0.0044 H   0  0  0  0  0  0  0  0  0  0  0  0
    0.3574    4.0854   -0.7878 H   0  0  0  0  0  0  0  0  0  0  0  0
   -1.6598    3.1921   -1.6482 H   0  0  0  0  0  0  0  0  0  0  0  0
   -2.0070    4.8874    0.6144 H   0  0  0  0  0  0  0  0  0  0  0  0
   -1.2387    4.8171    2.2122 H   0  0  0  0  0  0  0  0  0  0  0  0
   -2.5292    2.6972    2.8338 H   0  0  0  0  0  0  0  0  0  0  0  0
   -4.2971    3.9902    0.7232 H   0  0  0  0  0  0  0  0  0  0  0  0
   -4.3122    4.2748    2.4675 H   0  0  0  0  0  0  0  0  0  0  0  0
   -4.7687    2.6908    1.8369 H   0  0  0  0  0  0  0  0  0  0  0  0
   -3.9746    0.5035    1.1113 H   0  0  0  0  0  0  0  0  0  0  0  0
   -5.4409    0.4939    0.1725 H   0  0  0  0  0  0  0  0  0  0  0  0
   -4.2457   -2.1578   -2.1663 H   0  0  0  0  0  0  0  0  0  0  0  0
   -3.8709   -0.4930   -2.5230 H   0  0  0  0  0  0  0  0  0  0  0  0
   -5.5088   -0.9296   -1.9619 H   0  0  0  0  0  0  0  0  0  0  0  0
   -4.2729   -2.9794    0.0545 H   0  0  0  0  0  0  0  0  0  0  0  0
   -4.2343   -1.8900    1.4326 H   0  0  0  0  0  0  0  0  0  0  0  0
   -5.6775   -1.9493    0.3904 H   0  0  0  0  0  0  0  0  0  0  0  0
    0.8409   -0.9554    0.7329 H   0  0  0  0  0  0  0  0  0  0  0  0
   -0.0139   -0.9592    2.6687 H   0  0  0  0  0  0  0  0  0  0  0  0
  2  1  1  0  0  0  0
  3  2  1  0  0  0  0
  4  3  1  0  0  0  0
  5  4  1  0  0  0  0
  6  5  1  0  0  0  0
  7  6  1  0  0  0  0
  8  6  1  0  0  0  0
  9  8  1  0  0  0  0
 10  9  1  0  0  0  0
 11 10  2  0  0  0  0
 12 11  1  0  0  0  0
 13 12  1  0  0  0  0
 14 13  1  0  0  0  0
 15 14  1  0  0  0  0
 16 15  1  0  0  0  0
 17 16  1  0  0  0  0
 18 17  2  0  0  0  0
 19 17  1  0  0  0  0
 20  9  1  0  0  0  0
 21 20  1  0  0  0  0
 22 20  1  0  0  0  0
 23 22  1  0  0  0  0
 24 22  1  0  0  0  0
 24  3  1  0  0  0  0
 25 24  1  0  0  0  0
 26 25  1  0  0  0  0
 27 26  1  0  0  0  0
 28 26  1  0  0  0  0
 28 24  1  0  0  0  0
 29 28  1  0  0  0  0
 30 29  1  0  0  0  0
 31 30  2  0  0  0  0
 32 30  1  0  0  0  0
 33 32  1  0  0  0  0
 34 33  1  0  0  0  0
 35 33  1  0  0  0  0
 36 28  1  0  0  0  0
 37 36  2  0  0  0  0
 38 36  1  0  0  0  0
 38 20  1  0  0  0  0
 38  3  1  0  0  0  0
 39 38  1  0  0  0  0
 39  6  1  0  0  0  0
 40 39  1  0  0  0  0
  1 41  1  0  0  0  0
  1 42  1  0  0  0  0
  1 43  1  0  0  0  0
  4 44  1  0  0  0  0
  4 45  1  0  0  0  0
  5 46  1  0  0  0  0
  5 47  1  0  0  0  0
  7 48  1  0  0  0  0
  7 49  1  0  0  0  0
  7 50  1  0  0  0  0
  8 51  1  0  0  0  0
  8 52  1  0  0  0  0
  9 53  1  0  0  0  0
 10 54  1  0  0  0  0
 11 55  1  0  0  0  0
 12 56  1  0  0  0  0
 12 57  1  0  0  0  0
 13 58  1  0  0  0  0
 13 59  1  0  0  0  0
 14 60  1  0  0  0  0
 14 61  1  0  0  0  0
 15 62  1  0  0  0  0
 15 63  1  0  0  0  0
 16 64  1  0  0  0  0
 16 65  1  0  0  0  0
 19 66  1  0  0  0  0
 21 67  1  0  0  0  0
 21 68  1  0  0  0  0
 21 69  1  0  0  0  0
 22 70  1  0  0  0  0
 23 71  1  0  0  0  0
 25 72  1  0  0  0  0
 25 73  1  0  0  0  0
 26 74  1  0  0  0  0
 27 75  1  0  0  0  0
 27 76  1  0  0  0  0
 27 77  1  0  0  0  0
 32 78  1  0  0  0  0
 32 79  1  0  0  0  0
 34 80  1  0  0  0  0
 34 81  1  0  0  0  0
 34 82  1  0  0  0  0
 35 83  1  0  0  0  0
 35 84  1  0  0  0  0
 35 85  1  0  0  0  0
 39 86  1  0  0  0  0
 40 87  1  0  0  0  0
M  END
>  <energy>
270.08065045518839

$$$$
