CC1CN(c2nc(C3CC3)nc(N3CC4(N(C)C)CCC34)c2F)Cc2ccsc2O1
                    3D

 58 63  0  0  0  0  0  0  0  0999 V2000
    5.9544    0.2601    0.5210 C   0  0  0  0  0  0  0  0  0  0  0  0
    5.0982    1.3766   -0.0694 C   0  0  0  0  0  0  0  0  0  0  0  0
    3.7181    0.9067   -0.5884 C   0  0  0  0  0  0  0  0  0  0  0  0
    2.9671    0.1034    0.3900 N   0  0  0  0  0  0  0  0  0  0  0  0
    1.8057   -0.4502   -0.1724 C   0  0  0  0  0  0  0  0  0  0  0  0
    1.8610   -1.7664   -0.4392 N   0  0  0  0  0  0  0  0  0  0  0  0
    0.7745   -2.3603   -0.9677 C   0  0  0  0  0  0  0  0  0  0  0  0
    0.8217   -3.8500   -1.2023 C   0  0  0  0  0  0  0  0  0  0  0  0
   -0.3318   -4.7367   -0.7921 C   0  0  0  0  0  0  0  0  0  0  0  0
    0.9502   -4.7799   -0.0173 C   0  0  0  0  0  0  0  0  0  0  0  0
   -0.3568   -1.6987   -1.2732 N   0  0  0  0  0  0  0  0  0  0  0  0
   -0.4257   -0.3834   -0.9810 C   0  0  0  0  0  0  0  0  0  0  0  0
   -1.6364    0.3059   -1.2457 N   0  0  0  0  0  0  0  0  0  0  0  0
   -2.2690    1.1786   -0.2833 C   0  0  0  0  0  0  0  0  0  0  0  0
   -3.6086    0.5419   -0.6172 C   0  0  0  0  0  0  0  0  0  0  0  0
   -4.2848   -0.1209    0.4989 N   0  0  0  0  0  0  0  0  0  0  0  0
   -4.9110    0.8789    1.3638 C   0  0  0  0  0  0  0  0  0  0  0  0
   -5.2703   -1.1259    0.0969 C   0  0  0  0  0  0  0  0  0  0  0  0
   -4.4192    1.1495   -1.7475 C   0  0  0  0  0  0  0  0  0  0  0  0
   -3.6264    0.2820   -2.7501 C   0  0  0  0  0  0  0  0  0  0  0  0
   -2.8645   -0.3642   -1.5783 C   0  0  0  0  0  0  0  0  0  0  0  0
    0.6580    0.2846   -0.4347 C   0  0  0  0  0  0  0  0  0  0  0  0
    0.5997    1.5986   -0.1619 F   0  0  0  0  0  0  0  0  0  0  0  0
    2.7571    0.6782    1.7240 C   0  0  0  0  0  0  0  0  0  0  0  0
    2.9346    2.1545    1.9006 C   0  0  0  0  0  0  0  0  0  0  0  0
    1.9726    2.9959    2.5560 C   0  0  0  0  0  0  0  0  0  0  0  0
    2.3863    4.3036    2.6390 C   0  0  0  0  0  0  0  0  0  0  0  0
    3.9248    4.5262    1.9482 S   0  0  0  0  0  0  0  0  0  0  0  0
    4.0370    2.8782    1.4746 C   0  0  0  0  0  0  0  0  0  0  0  0
    5.1327    2.5157    0.8006 O   0  0  0  0  0  0  0  0  0  0  0  0
    6.9509    0.6406    0.7707 H   0  0  0  0  0  0  0  0  0  0  0  0
    6.0689   -0.5682   -0.1858 H   0  0  0  0  0  0  0  0  0  0  0  0
    5.5334   -0.1285    1.4526 H   0  0  0  0  0  0  0  0  0  0  0  0
    5.6341    1.7302   -0.9600 H   0  0  0  0  0  0  0  0  0  0  0  0
    3.1296    1.7732   -0.9198 H   0  0  0  0  0  0  0  0  0  0  0  0
    3.9001    0.2861   -1.4769 H   0  0  0  0  0  0  0  0  0  0  0  0
    1.3451   -4.1421   -2.1066 H   0  0  0  0  0  0  0  0  0  0  0  0
   -1.1976   -4.2749   -0.3287 H   0  0  0  0  0  0  0  0  0  0  0  0
   -0.5707   -5.5809   -1.4292 H   0  0  0  0  0  0  0  0  0  0  0  0
    0.9575   -4.3489    0.9788 H   0  0  0  0  0  0  0  0  0  0  0  0
    1.5914   -5.6467   -0.1251 H   0  0  0  0  0  0  0  0  0  0  0  0
   -2.1571    2.2326   -0.5584 H   0  0  0  0  0  0  0  0  0  0  0  0
   -1.9081    1.0298    0.7405 H   0  0  0  0  0  0  0  0  0  0  0  0
   -4.1826    1.6259    1.6971 H   0  0  0  0  0  0  0  0  0  0  0  0
   -5.7350    1.4042    0.8670 H   0  0  0  0  0  0  0  0  0  0  0  0
   -5.3043    0.4058    2.2705 H   0  0  0  0  0  0  0  0  0  0  0  0
   -5.6481   -1.6479    0.9840 H   0  0  0  0  0  0  0  0  0  0  0  0
   -4.8321   -1.8993   -0.5404 H   0  0  0  0  0  0  0  0  0  0  0  0
   -6.1316   -0.6952   -0.4256 H   0  0  0  0  0  0  0  0  0  0  0  0
   -5.4939    0.9505   -1.7546 H   0  0  0  0  0  0  0  0  0  0  0  0
   -4.2822    2.2284   -1.8769 H   0  0  0  0  0  0  0  0  0  0  0  0
   -4.2480   -0.4216   -3.3164 H   0  0  0  0  0  0  0  0  0  0  0  0
   -3.0087    0.8507   -3.4544 H   0  0  0  0  0  0  0  0  0  0  0  0
   -2.8955   -1.4471   -1.4572 H   0  0  0  0  0  0  0  0  0  0  0  0
    3.4716    0.1875    2.3987 H   0  0  0  0  0  0  0  0  0  0  0  0
    1.7766    0.3824    2.1281 H   0  0  0  0  0  0  0  0  0  0  0  0
    1.0243    2.6531    2.9517 H   0  0  0  0  0  0  0  0  0  0  0  0
    1.8628    5.1376    3.0846 H   0  0  0  0  0  0  0  0  0  0  0  0
  2  1  1  0  0  0  0
  3  2  1  0  0  0  0
  4  3  1  0  0  0  0
  5  4  1  0  0  0  0
  6  5  2  0  0  0  0
  7  6  1  0  0  0  0
  8  7  1  0  0  0  0
  9  8  1  0  0  0  0
 10  9  1  0  0  0  0
 10  8  1  0  0  0  0
 11  7  2  0  0  0  0
 12 11  1  0  0  0  0
 13 12  1  0  0  0  0
 14 13  1  0  0  0  0
 15 14  1  0  0  0  0
 16 15  1  0  0  0  0
 17 16  1  0  0  0  0
 18 16  1  0  0  0  0
 19 15  1  0  0  0  0
 20 19  1  0  0  0  0
 21 20  1  0  0  0  0
 21 13  1  0  0  0  0
 21 15  1  0  0  0  0
 22 12  2  0  0  0  0
 22  5  1  0  0  0  0
 23 22  1  0  0  0  0
 24  4  1  0  0  0  0
 25 24  1  0  0  0  0
 26 25  1  0  0  0  0
 27 26  2  0  0  0  0
 28 27  1  0  0  0  0
 29 28  1  0  0  0  0
 29 25  2  0  0  0  0
 30 29  1  0  0  0  0
 30  2  1  0  0  0  0
  1 31  1  0  0  0  0
  1 32  1  0  0  0  0
  1 33  1  0  0  0  0
  2 34  1  0  0  0  0
  3 35  1  0  0  0  0
  3 36  1  0  0  0  0
  8 37  1  0  0  0  0
  9 38  1  0  0  0  0
  9 39  1  0  0  0  0
 10 40  1  0  0  0  0
 10 41  1  0  0  0  0
 14 42  1  0  0  0  0
 14 43  1  0  0  0  0
 17 44  1  0  0  0  0
 17 45  1  0  0  0  0
 17 46  1  0  0  0  0
 18 47  1  0  0  0  0
 18 48  1  0  0  0  0
 18 49  1  0  0  0  0
 19 50  1  0  0  0  0
 19 51  1  0  0  0  0
 20 52  1  0  0  0  0
 20 53  1  0  0  0  0
 21 54  1  0  0  0  0
 24 55  1  0  0  0  0
 24 56  1  0  0  0  0
 26 57  1  0  0  0  0
 27 58  1  0  0  0  0
M  END
>  <energy>
111.16263810394409

$$$$
