CCCCNC(=O)NC12C3OCC4(OC(NC(C)C41)C2COC(=O)C(F)(F)F)O3
                    3D

 53 56  0  0  0  0  0  0  0  0999 V2000
   -4.6600    1.9664   -0.8339 C   0  0  0  0  0  0  0  0  0  0  0  0
   -3.6735    3.0993   -1.0718 C   0  0  0  0  0  0  0  0  0  0  0  0
   -3.2522    3.8043    0.2262 C   0  0  0  0  0  0  0  0  0  0  0  0
   -1.8465    3.4087    0.6809 C   0  0  0  0  0  0  0  0  0  0  0  0
   -1.7388    1.9799    0.8962 N   0  0  0  0  0  0  0  0  0  0  0  0
   -0.5111    1.3698    0.8764 C   0  0  0  0  0  0  0  0  0  0  0  0
    0.5562    1.9565    0.7886 O   0  0  0  0  0  0  0  0  0  0  0  0
   -0.6540    0.0087    0.8630 N   0  0  0  0  0  0  0  0  0  0  0  0
    0.4662   -0.9009    0.6337 C   0  0  0  0  0  0  0  0  0  0  0  0
    1.3486   -1.2304    1.9086 C   0  0  0  0  0  0  0  0  0  0  0  0
    0.8467   -2.3141    2.7810 O   0  0  0  0  0  0  0  0  0  0  0  0
    1.2470   -3.5703    2.0294 C   0  0  0  0  0  0  0  0  0  0  0  0
    1.4077   -2.9257    0.6795 C   0  0  0  0  0  0  0  0  0  0  0  0
    2.0073   -3.1908   -0.5376 O   0  0  0  0  0  0  0  0  0  0  0  0
    1.6315   -2.0861   -1.4133 C   0  0  0  0  0  0  0  0  0  0  0  0
    0.3799   -2.5254   -2.0238 N   0  0  0  0  0  0  0  0  0  0  0  0
   -0.6146   -2.6611   -0.9635 C   0  0  0  0  0  0  0  0  0  0  0  0
   -1.1776   -4.0814   -1.0149 C   0  0  0  0  0  0  0  0  0  0  0  0
   -0.0230   -2.3166    0.4154 C   0  0  0  0  0  0  0  0  0  0  0  0
    1.3015   -0.6462   -0.7090 C   0  0  0  0  0  0  0  0  0  0  0  0
    2.5394    0.2890   -0.6731 C   0  0  0  0  0  0  0  0  0  0  0  0
    3.0794    0.5211    0.6373 O   0  0  0  0  0  0  0  0  0  0  0  0
    4.1117    1.3890    0.8594 C   0  0  0  0  0  0  0  0  0  0  0  0
    4.5674    1.5025    2.0004 O   0  0  0  0  0  0  0  0  0  0  0  0
    4.6487    2.1779   -0.3412 C   0  0  0  0  0  0  0  0  0  0  0  0
    4.9799    1.3746   -1.3965 F   0  0  0  0  0  0  0  0  0  0  0  0
    3.7499    3.0790   -0.8327 F   0  0  0  0  0  0  0  0  0  0  0  0
    5.7780    2.8863   -0.0577 F   0  0  0  0  0  0  0  0  0  0  0  0
    2.3402   -1.9312    1.2165 O   0  0  0  0  0  0  0  0  0  0  0  0
   -4.2310    1.1790   -0.2078 H   0  0  0  0  0  0  0  0  0  0  0  0
   -4.9536    1.5144   -1.7852 H   0  0  0  0  0  0  0  0  0  0  0  0
   -5.5697    2.3324   -0.3478 H   0  0  0  0  0  0  0  0  0  0  0  0
   -2.8030    2.7172   -1.6177 H   0  0  0  0  0  0  0  0  0  0  0  0
   -4.1471    3.8287   -1.7363 H   0  0  0  0  0  0  0  0  0  0  0  0
   -3.2650    4.8899    0.0603 H   0  0  0  0  0  0  0  0  0  0  0  0
   -3.9714    3.5963    1.0254 H   0  0  0  0  0  0  0  0  0  0  0  0
   -1.1072    3.7188   -0.0695 H   0  0  0  0  0  0  0  0  0  0  0  0
   -1.5908    3.9105    1.6206 H   0  0  0  0  0  0  0  0  0  0  0  0
   -2.3907    1.5811    1.5528 H   0  0  0  0  0  0  0  0  0  0  0  0
   -1.5892   -0.3050    0.6511 H   0  0  0  0  0  0  0  0  0  0  0  0
    1.7222   -0.3839    2.4915 H   0  0  0  0  0  0  0  0  0  0  0  0
    0.4414   -4.3011    2.1168 H   0  0  0  0  0  0  0  0  0  0  0  0
    2.1715   -3.9528    2.4748 H   0  0  0  0  0  0  0  0  0  0  0  0
    2.4018   -1.9924   -2.1856 H   0  0  0  0  0  0  0  0  0  0  0  0
    0.0784   -1.8656   -2.7391 H   0  0  0  0  0  0  0  0  0  0  0  0
   -1.4431   -1.9688   -1.1712 H   0  0  0  0  0  0  0  0  0  0  0  0
   -0.3966   -4.8440   -0.9635 H   0  0  0  0  0  0  0  0  0  0  0  0
   -1.8809   -4.2603   -0.1967 H   0  0  0  0  0  0  0  0  0  0  0  0
   -1.7261   -4.2340   -1.9489 H   0  0  0  0  0  0  0  0  0  0  0  0
   -0.7825   -2.5817    1.1657 H   0  0  0  0  0  0  0  0  0  0  0  0
    0.6282   -0.1422   -1.4189 H   0  0  0  0  0  0  0  0  0  0  0  0
    2.2433    1.2607   -1.0880 H   0  0  0  0  0  0  0  0  0  0  0  0
    3.3254   -0.1299   -1.3065 H   0  0  0  0  0  0  0  0  0  0  0  0
  2  1  1  0  0  0  0
  3  2  1  0  0  0  0
  4  3  1  0  0  0  0
  5  4  1  0  0  0  0
  6  5  1  0  0  0  0
  7  6  2  0  0  0  0
  8  6  1  0  0  0  0
  9  8  1  0  0  0  0
 10  9  1  0  0  0  0
 11 10  1  0  0  0  0
 12 11  1  0  0  0  0
 13 12  1  0  0  0  0
 14 13  1  0  0  0  0
 15 14  1  0  0  0  0
 16 15  1  0  0  0  0
 17 16  1  0  0  0  0
 18 17  1  0  0  0  0
 19 17  1  0  0  0  0
 19 13  1  0  0  0  0
 19  9  1  0  0  0  0
 20 15  1  0  0  0  0
 20  9  1  0  0  0  0
 21 20  1  0  0  0  0
 22 21  1  0  0  0  0
 23 22  1  0  0  0  0
 24 23  2  0  0  0  0
 25 23  1  0  0  0  0
 26 25  1  0  0  0  0
 27 25  1  0  0  0  0
 28 25  1  0  0  0  0
 29 13  1  0  0  0  0
 29 10  1  0  0  0  0
  1 30  1  0  0  0  0
  1 31  1  0  0  0  0
  1 32  1  0  0  0  0
  2 33  1  0  0  0  0
  2 34  1  0  0  0  0
  3 35  1  0  0  0  0
  3 36  1  0  0  0  0
  4 37  1  0  0  0  0
  4 38  1  0  0  0  0
  5 39  1  0  0  0  0
  8 40  1  0  0  0  0
 10 41  1  0  0  0  0
 12 42  1  0  0  0  0
 12 43  1  0  0  0  0
 15 44  1  0  0  0  0
 16 45  1  0  0  0  0
 17 46  1  0  0  0  0
 18 47  1  0  0  0  0
 18 48  1  0  0  0  0
 18 49  1  0  0  0  0
 19 50  1  0  0  0  0
 20 51  1  0  0  0  0
 21 52  1  0  0  0  0
 21 53  1  0  0  0  0
M  END
>  <energy>
56.499236584309983

$$$$
