CCCCCCCCC#CCC([O-])C#[N+]C1CC2Cc3ccc([nH]3)CCCC1C21CO1
                    3D

 69 72  0  0  0  0  0  0  0  0999 V2000
   -2.7676    4.5561   -0.5474 C   0  0  0  0  0  0  0  0  0  0  0  0
   -3.8552    4.0420    0.3834 C   0  0  0  0  0  0  0  0  0  0  0  0
   -4.6555    2.8720   -0.1950 C   0  0  0  0  0  0  0  0  0  0  0  0
   -3.8237    1.5994   -0.3828 C   0  0  0  0  0  0  0  0  0  0  0  0
   -4.6901    0.4369   -0.8775 C   0  0  0  0  0  0  0  0  0  0  0  0
   -3.9011   -0.8467   -1.1618 C   0  0  0  0  0  0  0  0  0  0  0  0
   -3.2155   -1.4227    0.0766 C   0  0  0  0  0  0  0  0  0  0  0  0
   -2.6272   -2.8126   -0.1858 C   0  0  0  0  0  0  0  0  0  0  0  0
   -1.8578   -3.2569    0.9807 C   0  0  0  0  0  0  0  0  0  0  0  0
   -1.2096   -3.4617    1.9714 C   0  0  0  0  0  0  0  0  0  0  0  0
   -0.4289   -3.5551    3.2276 C   0  0  0  0  0  0  0  0  0  0  0  0
    0.5183   -2.3512    3.5392 C   0  0  0  0  0  0  0  0  0  0  0  0
   -0.1301   -1.1938    3.4496 O   0  5  0  0  0  0  0  0  0  0  0  0
    1.7000   -2.3804    2.6115 C   0  0  0  0  0  0  0  0  0  0  0  0
    2.6680   -2.4844    1.9640 N   0  3  0  0  0  0  0  0  0  0  0  0
    2.7317   -2.2854    0.6005 C   0  0  0  0  0  0  0  0  0  0  0  0
    1.4234   -2.3570   -0.2684 C   0  0  0  0  0  0  0  0  0  0  0  0
    1.7726   -1.6592   -1.6266 C   0  0  0  0  0  0  0  0  0  0  0  0
    0.7653   -0.5542   -2.0766 C   0  0  0  0  0  0  0  0  0  0  0  0
    0.9541    0.7529   -1.3574 C   0  0  0  0  0  0  0  0  0  0  0  0
    0.3048    1.3315   -0.2827 C   0  0  0  0  0  0  0  0  0  0  0  0
    1.2583    2.1967    0.3425 C   0  0  0  0  0  0  0  0  0  0  0  0
    2.4312    2.0759   -0.3813 C   0  0  0  0  0  0  0  0  0  0  0  0
    2.0465    1.5643   -1.6011 N   0  0  0  0  0  0  0  0  0  0  0  0
    3.8715    2.2467   -0.0054 C   0  0  0  0  0  0  0  0  0  0  0  0
    4.3494    1.2384    1.0752 C   0  0  0  0  0  0  0  0  0  0  0  0
    4.5377   -0.2678    0.6884 C   0  0  0  0  0  0  0  0  0  0  0  0
    3.2576   -0.9036    0.1573 C   0  0  0  0  0  0  0  0  0  0  0  0
    3.1534   -1.0895   -1.3524 C   0  0  0  0  0  0  0  0  0  0  0  0
    4.1189   -0.6189   -2.4340 C   0  0  0  0  0  0  0  0  0  0  0  0
    4.2078   -1.9305   -1.8912 O   0  0  0  0  0  0  0  0  0  0  0  0
   -3.1779    4.8053   -1.5310 H   0  0  0  0  0  0  0  0  0  0  0  0
   -1.9713    3.8183   -0.6785 H   0  0  0  0  0  0  0  0  0  0  0  0
   -2.3135    5.4614   -0.1305 H   0  0  0  0  0  0  0  0  0  0  0  0
   -4.5490    4.8648    0.5947 H   0  0  0  0  0  0  0  0  0  0  0  0
   -3.4067    3.7518    1.3403 H   0  0  0  0  0  0  0  0  0  0  0  0
   -5.4875    2.6577    0.4880 H   0  0  0  0  0  0  0  0  0  0  0  0
   -5.1023    3.1692   -1.1517 H   0  0  0  0  0  0  0  0  0  0  0  0
   -3.3564    1.3379    0.5729 H   0  0  0  0  0  0  0  0  0  0  0  0
   -3.0200    1.7786   -1.1047 H   0  0  0  0  0  0  0  0  0  0  0  0
   -5.4759    0.2242   -0.1423 H   0  0  0  0  0  0  0  0  0  0  0  0
   -5.1977    0.7365   -1.8028 H   0  0  0  0  0  0  0  0  0  0  0  0
   -3.1505   -0.6508   -1.9369 H   0  0  0  0  0  0  0  0  0  0  0  0
   -4.5946   -1.5906   -1.5717 H   0  0  0  0  0  0  0  0  0  0  0  0
   -3.9323   -1.4823    0.9050 H   0  0  0  0  0  0  0  0  0  0  0  0
   -2.4153   -0.7463    0.3999 H   0  0  0  0  0  0  0  0  0  0  0  0
   -3.4316   -3.5259   -0.3978 H   0  0  0  0  0  0  0  0  0  0  0  0
   -1.9737   -2.7842   -1.0658 H   0  0  0  0  0  0  0  0  0  0  0  0
    0.1634   -4.4807    3.1964 H   0  0  0  0  0  0  0  0  0  0  0  0
   -1.1379   -3.6751    4.0598 H   0  0  0  0  0  0  0  0  0  0  0  0
    0.9586   -2.6208    4.5135 H   0  0  0  0  0  0  0  0  0  0  0  0
    3.4127   -3.0645    0.2299 H   0  0  0  0  0  0  0  0  0  0  0  0
    0.5949   -1.8340    0.2182 H   0  0  0  0  0  0  0  0  0  0  0  0
    1.1167   -3.3978   -0.4249 H   0  0  0  0  0  0  0  0  0  0  0  0
    1.8083   -2.4290   -2.4083 H   0  0  0  0  0  0  0  0  0  0  0  0
   -0.2634   -0.9122   -1.9591 H   0  0  0  0  0  0  0  0  0  0  0  0
    0.9103   -0.3674   -3.1487 H   0  0  0  0  0  0  0  0  0  0  0  0
   -0.6161    0.9886    0.1762 H   0  0  0  0  0  0  0  0  0  0  0  0
    1.1612    2.6035    1.3428 H   0  0  0  0  0  0  0  0  0  0  0  0
    2.6886    1.4120   -2.3622 H   0  0  0  0  0  0  0  0  0  0  0  0
    4.5176    2.1664   -0.8868 H   0  0  0  0  0  0  0  0  0  0  0  0
    4.0034    3.2636    0.3850 H   0  0  0  0  0  0  0  0  0  0  0  0
    5.3185    1.5917    1.4510 H   0  0  0  0  0  0  0  0  0  0  0  0
    3.6614    1.2861    1.9306 H   0  0  0  0  0  0  0  0  0  0  0  0
    4.8548   -0.7913    1.5985 H   0  0  0  0  0  0  0  0  0  0  0  0
    5.3670   -0.3510   -0.0209 H   0  0  0  0  0  0  0  0  0  0  0  0
    2.4649   -0.2450    0.5139 H   0  0  0  0  0  0  0  0  0  0  0  0
    3.7616   -0.5331   -3.4502 H   0  0  0  0  0  0  0  0  0  0  0  0
    4.9018    0.0832   -2.1824 H   0  0  0  0  0  0  0  0  0  0  0  0
  2  1  1  0  0  0  0
  3  2  1  0  0  0  0
  4  3  1  0  0  0  0
  5  4  1  0  0  0  0
  6  5  1  0  0  0  0
  7  6  1  0  0  0  0
  8  7  1  0  0  0  0
  9  8  1  0  0  0  0
 10  9  3  0  0  0  0
 11 10  1  0  0  0  0
 12 11  1  0  0  0  0
 13 12  1  0  0  0  0
 14 12  1  0  0  0  0
 15 14  3  0  0  0  0
 16 15  1  0  0  0  0
 17 16  1  0  0  0  0
 18 17  1  0  0  0  0
 19 18  1  0  0  0  0
 20 19  1  0  0  0  0
 21 20  2  0  0  0  0
 22 21  1  0  0  0  0
 23 22  2  0  0  0  0
 24 23  1  0  0  0  0
 24 20  1  0  0  0  0
 25 23  1  0  0  0  0
 26 25  1  0  0  0  0
 27 26  1  0  0  0  0
 28 27  1  0  0  0  0
 28 16  1  0  0  0  0
 29 28  1  0  0  0  0
 29 18  1  0  0  0  0
 30 29  1  0  0  0  0
 31 30  1  0  0  0  0
 31 29  1  0  0  0  0
  1 32  1  0  0  0  0
  1 33  1  0  0  0  0
  1 34  1  0  0  0  0
  2 35  1  0  0  0  0
  2 36  1  0  0  0  0
  3 37  1  0  0  0  0
  3 38  1  0  0  0  0
  4 39  1  0  0  0  0
  4 40  1  0  0  0  0
  5 41  1  0  0  0  0
  5 42  1  0  0  0  0
  6 43  1  0  0  0  0
  6 44  1  0  0  0  0
  7 45  1  0  0  0  0
  7 46  1  0  0  0  0
  8 47  1  0  0  0  0
  8 48  1  0  0  0  0
 11 49  1  0  0  0  0
 11 50  1  0  0  0  0
 12 51  1  0  0  0  0
 16 52  1  0  0  0  0
 17 53  1  0  0  0  0
 17 54  1  0  0  0  0
 18 55  1  0  0  0  0
 19 56  1  0  0  0  0
 19 57  1  0  0  0  0
 21 58  1  0  0  0  0
 22 59  1  0  0  0  0
 24 60  1  0  0  0  0
 25 61  1  0  0  0  0
 25 62  1  0  0  0  0
 26 63  1  0  0  0  0
 26 64  1  0  0  0  0
 27 65  1  0  0  0  0
 27 66  1  0  0  0  0
 28 67  1  0  0  0  0
 30 68  1  0  0  0  0
 30 69  1  0  0  0  0
M  CHG  2  13  -1  15   1
M  END
>  <energy>
150.80227253085496

$$$$
