CC1C2OC13OOC2(CO)CCC3c1ccoc1
                    3D

 34 37  0  0  0  0  0  0  0  0999 V2000
   -1.3555    0.0984    2.6135 C   0  0  0  0  0  0  0  0  0  0  0  0
   -1.0698    0.2321    1.1030 C   0  0  0  0  0  0  0  0  0  0  0  0
   -1.9457   -0.5479    0.1881 C   0  0  0  0  0  0  0  0  0  0  0  0
   -1.0842   -1.6940    0.7235 O   0  0  0  0  0  0  0  0  0  0  0  0
    0.1002   -0.8757    0.3133 C   0  0  0  0  0  0  0  0  0  0  0  0
    0.3314   -1.2110   -1.1039 O   0  0  0  0  0  0  0  0  0  0  0  0
   -0.9113   -1.1429   -1.8521 O   0  0  0  0  0  0  0  0  0  0  0  0
   -1.6312   -0.0753   -1.2640 C   0  0  0  0  0  0  0  0  0  0  0  0
   -2.9382    0.1164   -2.0441 C   0  0  0  0  0  0  0  0  0  0  0  0
   -3.7222   -1.0752   -2.0556 O   0  0  0  0  0  0  0  0  0  0  0  0
   -0.7477    1.2462   -1.3614 C   0  0  0  0  0  0  0  0  0  0  0  0
    0.7203    1.2698   -0.7246 C   0  0  0  0  0  0  0  0  0  0  0  0
    1.0332    0.3100    0.5316 C   0  0  0  0  0  0  0  0  0  0  0  0
    2.4862   -0.1219    0.5608 C   0  0  0  0  0  0  0  0  0  0  0  0
    3.0158   -1.3627    1.0274 C   0  0  0  0  0  0  0  0  0  0  0  0
    4.3823   -1.2832    0.8977 C   0  0  0  0  0  0  0  0  0  0  0  0
    4.7389   -0.0772    0.3926 O   0  0  0  0  0  0  0  0  0  0  0  0
    3.5941    0.6219    0.1979 C   0  0  0  0  0  0  0  0  0  0  0  0
   -0.5531    0.5614    3.1963 H   0  0  0  0  0  0  0  0  0  0  0  0
   -1.4455   -0.9423    2.9406 H   0  0  0  0  0  0  0  0  0  0  0  0
   -2.2908    0.6112    2.8636 H   0  0  0  0  0  0  0  0  0  0  0  0
   -1.0998    1.3131    0.9310 H   0  0  0  0  0  0  0  0  0  0  0  0
   -2.9909   -0.6587    0.4886 H   0  0  0  0  0  0  0  0  0  0  0  0
   -2.7321    0.3721   -3.0893 H   0  0  0  0  0  0  0  0  0  0  0  0
   -3.5462    0.9140   -1.6042 H   0  0  0  0  0  0  0  0  0  0  0  0
   -3.1213   -1.8069   -2.2973 H   0  0  0  0  0  0  0  0  0  0  0  0
   -1.3190    2.0904   -0.9544 H   0  0  0  0  0  0  0  0  0  0  0  0
   -0.6119    1.4806   -2.4274 H   0  0  0  0  0  0  0  0  0  0  0  0
    1.4090    1.0183   -1.5434 H   0  0  0  0  0  0  0  0  0  0  0  0
    0.9667    2.3035   -0.4498 H   0  0  0  0  0  0  0  0  0  0  0  0
    0.9415    0.8717    1.4725 H   0  0  0  0  0  0  0  0  0  0  0  0
    2.4720   -2.2137    1.4155 H   0  0  0  0  0  0  0  0  0  0  0  0
    5.1968   -1.9607    1.1133 H   0  0  0  0  0  0  0  0  0  0  0  0
    3.7282    1.6182   -0.1993 H   0  0  0  0  0  0  0  0  0  0  0  0
  2  1  1  0  0  0  0
  3  2  1  0  0  0  0
  4  3  1  0  0  0  0
  5  4  1  0  0  0  0
  5  2  1  0  0  0  0
  6  5  1  0  0  0  0
  7  6  1  0  0  0  0
  8  7  1  0  0  0  0
  8  3  1  0  0  0  0
  9  8  1  0  0  0  0
 10  9  1  0  0  0  0
 11  8  1  0  0  0  0
 12 11  1  0  0  0  0
 13 12  1  0  0  0  0
 13  5  1  0  0  0  0
 14 13  1  0  0  0  0
 15 14  1  0  0  0  0
 16 15  2  0  0  0  0
 17 16  1  0  0  0  0
 18 17  1  0  0  0  0
 18 14  2  0  0  0  0
  1 19  1  0  0  0  0
  1 20  1  0  0  0  0
  1 21  1  0  0  0  0
  2 22  1  0  0  0  0
  3 23  1  0  0  0  0
  9 24  1  0  0  0  0
  9 25  1  0  0  0  0
 10 26  1  0  0  0  0
 11 27  1  0  0  0  0
 11 28  1  0  0  0  0
 12 29  1  0  0  0  0
 12 30  1  0  0  0  0
 13 31  1  0  0  0  0
 15 32  1  0  0  0  0
 16 33  1  0  0  0  0
 18 34  1  0  0  0  0
M  END
>  <energy>
218.2327711611365

$$$$
