CC12CC=CC3CC4(NC(=N)N)C1C1C(C2)C3(C(=O)NCCCCCCN2CCCCC2)C14
                    3D

 76 81  0  0  0  0  0  0  0  0999 V2000
    3.2538   -1.1697   -3.6535 C   0  0  0  0  0  0  0  0  0  0  0  0
    2.6286   -0.7056   -2.3099 C   0  0  0  0  0  0  0  0  0  0  0  0
    1.5734   -1.7379   -1.8671 C   0  0  0  0  0  0  0  0  0  0  0  0
    0.3867   -1.2154   -1.1048 C   0  0  0  0  0  0  0  0  0  0  0  0
    0.3579   -0.3562   -0.0750 C   0  0  0  0  0  0  0  0  0  0  0  0
    1.4898    0.1663    0.7676 C   0  0  0  0  0  0  0  0  0  0  0  0
    2.4944   -0.9310    1.1276 C   0  0  0  0  0  0  0  0  0  0  0  0
    3.7250   -0.6724    0.2877 C   0  0  0  0  0  0  0  0  0  0  0  0
    4.9343   -1.2455    0.8527 N   0  0  0  0  0  0  0  0  0  0  0  0
    4.8921   -2.5739    1.1157 C   0  0  0  0  0  0  0  0  0  0  0  0
    4.5664   -3.0798    2.2495 N   0  0  0  0  0  0  0  0  0  0  0  0
    5.2856   -3.3700    0.0998 N   0  0  0  0  0  0  0  0  0  0  0  0
    3.7989   -0.5975   -1.3015 C   0  0  0  0  0  0  0  0  0  0  0  0
    4.0008    0.9214   -1.1578 C   0  0  0  0  0  0  0  0  0  0  0  0
    2.6346    1.5662   -1.3732 C   0  0  0  0  0  0  0  0  0  0  0  0
    2.0727    0.7277   -2.5041 C   0  0  0  0  0  0  0  0  0  0  0  0
    2.2870    1.3623    0.1786 C   0  0  0  0  0  0  0  0  0  0  0  0
    2.0943    2.7255    0.9773 C   0  0  0  0  0  0  0  0  0  0  0  0
    2.8417    3.1076    1.8863 O   0  0  0  0  0  0  0  0  0  0  0  0
    1.1048    3.6025    0.5962 N   0  0  0  0  0  0  0  0  0  0  0  0
   -0.2226    3.2669    0.1118 C   0  0  0  0  0  0  0  0  0  0  0  0
   -1.2735    4.0000    0.9534 C   0  0  0  0  0  0  0  0  0  0  0  0
   -2.6615    3.3558    0.9268 C   0  0  0  0  0  0  0  0  0  0  0  0
   -2.7605    2.1844    1.9124 C   0  0  0  0  0  0  0  0  0  0  0  0
   -4.1777    1.6133    2.0348 C   0  0  0  0  0  0  0  0  0  0  0  0
   -4.6396    0.8363    0.7852 C   0  0  0  0  0  0  0  0  0  0  0  0
   -5.0370   -0.5475    1.0876 N   0  0  0  0  0  0  0  0  0  0  0  0
   -3.8902   -1.3521    1.5460 C   0  0  0  0  0  0  0  0  0  0  0  0
   -3.8980   -2.7910    1.0387 C   0  0  0  0  0  0  0  0  0  0  0  0
   -3.9061   -2.8106   -0.4874 C   0  0  0  0  0  0  0  0  0  0  0  0
   -4.8858   -1.7982   -1.0820 C   0  0  0  0  0  0  0  0  0  0  0  0
   -5.7822   -1.1656   -0.0197 C   0  0  0  0  0  0  0  0  0  0  0  0
    3.7715    0.8517    0.3247 C   0  0  0  0  0  0  0  0  0  0  0  0
    4.0779   -0.5107   -3.9630 H   0  0  0  0  0  0  0  0  0  0  0  0
    3.6683   -2.1809   -3.5716 H   0  0  0  0  0  0  0  0  0  0  0  0
    2.5136   -1.1712   -4.4619 H   0  0  0  0  0  0  0  0  0  0  0  0
    1.1525   -2.1958   -2.7725 H   0  0  0  0  0  0  0  0  0  0  0  0
    2.0298   -2.5659   -1.3138 H   0  0  0  0  0  0  0  0  0  0  0  0
   -0.5740   -1.5560   -1.4930 H   0  0  0  0  0  0  0  0  0  0  0  0
   -0.6299   -0.1082    0.3108 H   0  0  0  0  0  0  0  0  0  0  0  0
    1.0296    0.4816    1.7163 H   0  0  0  0  0  0  0  0  0  0  0  0
    2.1072   -1.9488    1.0062 H   0  0  0  0  0  0  0  0  0  0  0  0
    2.7395   -0.8172    2.1937 H   0  0  0  0  0  0  0  0  0  0  0  0
    5.7355   -1.0360    0.2628 H   0  0  0  0  0  0  0  0  0  0  0  0
    4.3700   -2.2864    2.8704 H   0  0  0  0  0  0  0  0  0  0  0  0
    5.1844   -4.3419    0.3831 H   0  0  0  0  0  0  0  0  0  0  0  0
    4.7658   -3.2117   -0.7537 H   0  0  0  0  0  0  0  0  0  0  0  0
    4.6965   -1.1061   -1.6810 H   0  0  0  0  0  0  0  0  0  0  0  0
    4.9060    1.3847   -1.5422 H   0  0  0  0  0  0  0  0  0  0  0  0
    2.6953    2.6255   -1.6489 H   0  0  0  0  0  0  0  0  0  0  0  0
    2.4305    1.1497   -3.4532 H   0  0  0  0  0  0  0  0  0  0  0  0
    0.9841    0.7883   -2.5564 H   0  0  0  0  0  0  0  0  0  0  0  0
    1.1975    4.4814    1.0923 H   0  0  0  0  0  0  0  0  0  0  0  0
   -0.3682    2.1920    0.1512 H   0  0  0  0  0  0  0  0  0  0  0  0
   -0.2781    3.5861   -0.9346 H   0  0  0  0  0  0  0  0  0  0  0  0
   -0.9429    4.0873    1.9961 H   0  0  0  0  0  0  0  0  0  0  0  0
   -1.3504    5.0273    0.5809 H   0  0  0  0  0  0  0  0  0  0  0  0
   -2.9175    3.0428   -0.0918 H   0  0  0  0  0  0  0  0  0  0  0  0
   -3.4013    4.1128    1.2193 H   0  0  0  0  0  0  0  0  0  0  0  0
   -2.0633    1.3889    1.6339 H   0  0  0  0  0  0  0  0  0  0  0  0
   -2.4526    2.5299    2.9076 H   0  0  0  0  0  0  0  0  0  0  0  0
   -4.8862    2.4303    2.2348 H   0  0  0  0  0  0  0  0  0  0  0  0
   -4.2180    0.9809    2.9321 H   0  0  0  0  0  0  0  0  0  0  0  0
   -5.5000    1.3827    0.3782 H   0  0  0  0  0  0  0  0  0  0  0  0
   -3.8691    0.8435    0.0028 H   0  0  0  0  0  0  0  0  0  0  0  0
   -2.9416   -0.9049    1.2215 H   0  0  0  0  0  0  0  0  0  0  0  0
   -3.8736   -1.3563    2.6418 H   0  0  0  0  0  0  0  0  0  0  0  0
   -4.7646   -3.3375    1.4349 H   0  0  0  0  0  0  0  0  0  0  0  0
   -3.0114   -3.3195    1.4032 H   0  0  0  0  0  0  0  0  0  0  0  0
   -2.8990   -2.5762   -0.8530 H   0  0  0  0  0  0  0  0  0  0  0  0
   -4.1342   -3.8216   -0.8446 H   0  0  0  0  0  0  0  0  0  0  0  0
   -4.3302   -1.0187   -1.6176 H   0  0  0  0  0  0  0  0  0  0  0  0
   -5.5088   -2.2935   -1.8360 H   0  0  0  0  0  0  0  0  0  0  0  0
   -6.4662   -0.4473   -0.4845 H   0  0  0  0  0  0  0  0  0  0  0  0
   -6.4380   -1.9426    0.3990 H   0  0  0  0  0  0  0  0  0  0  0  0
    4.4753    1.3711    0.9758 H   0  0  0  0  0  0  0  0  0  0  0  0
  2  1  1  0  0  0  0
  3  2  1  0  0  0  0
  4  3  1  0  0  0  0
  5  4  2  0  0  0  0
  6  5  1  0  0  0  0
  7  6  1  0  0  0  0
  8  7  1  0  0  0  0
  9  8  1  0  0  0  0
 10  9  1  0  0  0  0
 11 10  2  0  0  0  0
 12 10  1  0  0  0  0
 13  8  1  0  0  0  0
 13  2  1  0  0  0  0
 14 13  1  0  0  0  0
 15 14  1  0  0  0  0
 16 15  1  0  0  0  0
 16  2  1  0  0  0  0
 17 15  1  0  0  0  0
 17  6  1  0  0  0  0
 18 17  1  0  0  0  0
 19 18  2  0  0  0  0
 20 18  1  0  0  0  0
 21 20  1  0  0  0  0
 22 21  1  0  0  0  0
 23 22  1  0  0  0  0
 24 23  1  0  0  0  0
 25 24  1  0  0  0  0
 26 25  1  0  0  0  0
 27 26  1  0  0  0  0
 28 27  1  0  0  0  0
 29 28  1  0  0  0  0
 30 29  1  0  0  0  0
 31 30  1  0  0  0  0
 32 31  1  0  0  0  0
 32 27  1  0  0  0  0
 33 17  1  0  0  0  0
 33 14  1  0  0  0  0
 33  8  1  0  0  0  0
  1 34  1  0  0  0  0
  1 35  1  0  0  0  0
  1 36  1  0  0  0  0
  3 37  1  0  0  0  0
  3 38  1  0  0  0  0
  4 39  1  0  0  0  0
  5 40  1  0  0  0  0
  6 41  1  0  0  0  0
  7 42  1  0  0  0  0
  7 43  1  0  0  0  0
  9 44  1  0  0  0  0
 11 45  1  0  0  0  0
 12 46  1  0  0  0  0
 12 47  1  0  0  0  0
 13 48  1  0  0  0  0
 14 49  1  0  0  0  0
 15 50  1  0  0  0  0
 16 51  1  0  0  0  0
 16 52  1  0  0  0  0
 20 53  1  0  0  0  0
 21 54  1  0  0  0  0
 21 55  1  0  0  0  0
 22 56  1  0  0  0  0
 22 57  1  0  0  0  0
 23 58  1  0  0  0  0
 23 59  1  0  0  0  0
 24 60  1  0  0  0  0
 24 61  1  0  0  0  0
 25 62  1  0  0  0  0
 25 63  1  0  0  0  0
 26 64  1  0  0  0  0
 26 65  1  0  0  0  0
 28 66  1  0  0  0  0
 28 67  1  0  0  0  0
 29 68  1  0  0  0  0
 29 69  1  0  0  0  0
 30 70  1  0  0  0  0
 30 71  1  0  0  0  0
 31 72  1  0  0  0  0
 31 73  1  0  0  0  0
 32 74  1  0  0  0  0
 32 75  1  0  0  0  0
 33 76  1  0  0  0  0
M  END
>  <energy>
-52.830240231339474

$$$$
