CC1CCC23CN(S(=O)(=O)c4nn[nH]n4)C(CC(F)=N2)C(C)(C2CC2)C1CCc1cc(F)c(F)cc1O3
                    3D

 66 71  0  0  0  0  0  0  0  0999 V2000
   -0.2887   -3.8932    0.4084 C   0  0  0  0  0  0  0  0  0  0  0  0
   -0.2543   -2.6201   -0.4727 C   0  0  0  0  0  0  0  0  0  0  0  0
    1.0809   -2.5269   -1.2113 C   0  0  0  0  0  0  0  0  0  0  0  0
    2.1618   -1.5474   -0.8362 C   0  0  0  0  0  0  0  0  0  0  0  0
    2.0930    0.0061   -0.8662 C   0  0  0  0  0  0  0  0  0  0  0  0
    1.0943    1.0929   -0.3260 C   0  0  0  0  0  0  0  0  0  0  0  0
    0.0191    1.5279   -1.2037 N   0  0  0  0  0  0  0  0  0  0  0  0
   -0.0681    3.1444   -1.7263 S   0  0  0  0  0  0  0  0  0  0  0  0
   -0.7523    3.1505   -3.0042 O   0  0  0  0  0  0  0  0  0  0  0  0
    1.2223    3.7778   -1.5595 O   0  0  0  0  0  0  0  0  0  0  0  0
   -1.1283    4.0235   -0.6351 C   0  0  0  0  0  0  0  0  0  0  0  0
   -2.3260    4.5563   -1.0486 N   0  0  0  0  0  0  0  0  0  0  0  0
   -2.8760    5.1185    0.0195 N   0  0  0  0  0  0  0  0  0  0  0  0
   -1.9993    4.9063    1.0082 N   0  0  0  0  0  0  0  0  0  0  0  0
   -0.9138    4.1848    0.6921 N   0  0  0  0  0  0  0  0  0  0  0  0
   -0.8827    0.5230   -1.7302 C   0  0  0  0  0  0  0  0  0  0  0  0
   -0.1906   -0.1678   -2.8997 C   0  0  0  0  0  0  0  0  0  0  0  0
    1.2801    0.1776   -3.1375 C   0  0  0  0  0  0  0  0  0  0  0  0
    1.6047    0.3740   -4.4262 F   0  0  0  0  0  0  0  0  0  0  0  0
    2.2642    0.2936   -2.3127 N   0  0  0  0  0  0  0  0  0  0  0  0
   -1.6705   -0.3136   -0.6102 C   0  0  0  0  0  0  0  0  0  0  0  0
   -2.3129    0.7512    0.3517 C   0  0  0  0  0  0  0  0  0  0  0  0
   -2.9174   -0.9454   -1.3644 C   0  0  0  0  0  0  0  0  0  0  0  0
   -3.4008   -2.3858   -1.3657 C   0  0  0  0  0  0  0  0  0  0  0  0
   -4.1605   -1.3602   -0.5915 C   0  0  0  0  0  0  0  0  0  0  0  0
   -0.8847   -1.4147    0.2839 C   0  0  0  0  0  0  0  0  0  0  0  0
   -0.2372   -1.0089    1.6833 C   0  0  0  0  0  0  0  0  0  0  0  0
    1.2412   -1.2953    2.0514 C   0  0  0  0  0  0  0  0  0  0  0  0
    2.2176   -0.1302    2.2482 C   0  0  0  0  0  0  0  0  0  0  0  0
    2.2024    0.4107    3.5603 C   0  0  0  0  0  0  0  0  0  0  0  0
    3.1061    1.3886    3.9668 C   0  0  0  0  0  0  0  0  0  0  0  0
    3.0426    1.8608    5.2197 F   0  0  0  0  0  0  0  0  0  0  0  0
    4.0595    1.8587    3.0864 C   0  0  0  0  0  0  0  0  0  0  0  0
    4.9422    2.7880    3.4772 F   0  0  0  0  0  0  0  0  0  0  0  0
    4.0868    1.3880    1.7814 C   0  0  0  0  0  0  0  0  0  0  0  0
    3.1554    0.4291    1.3323 C   0  0  0  0  0  0  0  0  0  0  0  0
    3.2956    0.2487   -0.0353 O   0  0  0  0  0  0  0  0  0  0  0  0
   -0.0919   -4.7850   -0.1982 H   0  0  0  0  0  0  0  0  0  0  0  0
   -1.2750   -4.0377    0.8640 H   0  0  0  0  0  0  0  0  0  0  0  0
    0.4498   -3.8698    1.2126 H   0  0  0  0  0  0  0  0  0  0  0  0
   -0.9460   -2.8659   -1.2838 H   0  0  0  0  0  0  0  0  0  0  0  0
    0.9149   -2.4719   -2.2898 H   0  0  0  0  0  0  0  0  0  0  0  0
    1.5576   -3.5186   -1.1432 H   0  0  0  0  0  0  0  0  0  0  0  0
    2.6832   -1.9200    0.0448 H   0  0  0  0  0  0  0  0  0  0  0  0
    2.9610   -1.7901   -1.5633 H   0  0  0  0  0  0  0  0  0  0  0  0
    0.6599    0.8670    0.6301 H   0  0  0  0  0  0  0  0  0  0  0  0
    1.6943    1.9850   -0.1007 H   0  0  0  0  0  0  0  0  0  0  0  0
   -2.1565    5.2684    1.9448 H   0  0  0  0  0  0  0  0  0  0  0  0
   -1.6982    1.0905   -2.2041 H   0  0  0  0  0  0  0  0  0  0  0  0
   -0.6835    0.1900   -3.8157 H   0  0  0  0  0  0  0  0  0  0  0  0
   -0.3854   -1.2345   -2.9379 H   0  0  0  0  0  0  0  0  0  0  0  0
   -1.5751    1.4144    0.8069 H   0  0  0  0  0  0  0  0  0  0  0  0
   -3.0285    1.3863   -0.1861 H   0  0  0  0  0  0  0  0  0  0  0  0
   -2.8599    0.2766    1.1742 H   0  0  0  0  0  0  0  0  0  0  0  0
   -3.1517   -0.3899   -2.2738 H   0  0  0  0  0  0  0  0  0  0  0  0
   -3.8425   -2.7589   -2.2852 H   0  0  0  0  0  0  0  0  0  0  0  0
   -2.9518   -3.1739   -0.7785 H   0  0  0  0  0  0  0  0  0  0  0  0
   -4.1377   -1.4501    0.4888 H   0  0  0  0  0  0  0  0  0  0  0  0
   -5.1248   -1.0383   -0.9705 H   0  0  0  0  0  0  0  0  0  0  0  0
   -1.7794   -1.9029    0.7048 H   0  0  0  0  0  0  0  0  0  0  0  0
   -0.7974   -1.6167    2.4139 H   0  0  0  0  0  0  0  0  0  0  0  0
   -0.5082    0.0047    1.9867 H   0  0  0  0  0  0  0  0  0  0  0  0
    1.1904   -1.7673    3.0484 H   0  0  0  0  0  0  0  0  0  0  0  0
    1.6760   -2.1256    1.5140 H   0  0  0  0  0  0  0  0  0  0  0  0
    1.4847    0.0566    4.2989 H   0  0  0  0  0  0  0  0  0  0  0  0
    4.8161    1.8063    1.0905 H   0  0  0  0  0  0  0  0  0  0  0  0
  2  1  1  0  0  0  0
  3  2  1  0  0  0  0
  4  3  1  0  0  0  0
  5  4  1  0  0  0  0
  6  5  1  0  0  0  0
  7  6  1  0  0  0  0
  8  7  1  0  0  0  0
  9  8  2  0  0  0  0
 10  8  2  0  0  0  0
 11  8  1  0  0  0  0
 12 11  1  0  0  0  0
 13 12  2  0  0  0  0
 14 13  1  0  0  0  0
 15 14  1  0  0  0  0
 15 11  2  0  0  0  0
 16  7  1  0  0  0  0
 17 16  1  0  0  0  0
 18 17  1  0  0  0  0
 19 18  1  0  0  0  0
 20 18  2  0  0  0  0
 20  5  1  0  0  0  0
 21 16  1  0  0  0  0
 22 21  1  0  0  0  0
 23 21  1  0  0  0  0
 24 23  1  0  0  0  0
 25 24  1  0  0  0  0
 25 23  1  0  0  0  0
 26 21  1  0  0  0  0
 26  2  1  0  0  0  0
 27 26  1  0  0  0  0
 28 27  1  0  0  0  0
 29 28  1  0  0  0  0
 30 29  2  0  0  0  0
 31 30  1  0  0  0  0
 32 31  1  0  0  0  0
 33 31  2  0  0  0  0
 34 33  1  0  0  0  0
 35 33  1  0  0  0  0
 36 35  2  0  0  0  0
 36 29  1  0  0  0  0
 37 36  1  0  0  0  0
 37  5  1  0  0  0  0
  1 38  1  0  0  0  0
  1 39  1  0  0  0  0
  1 40  1  0  0  0  0
  2 41  1  0  0  0  0
  3 42  1  0  0  0  0
  3 43  1  0  0  0  0
  4 44  1  0  0  0  0
  4 45  1  0  0  0  0
  6 46  1  0  0  0  0
  6 47  1  0  0  0  0
 14 48  1  0  0  0  0
 16 49  1  0  0  0  0
 17 50  1  0  0  0  0
 17 51  1  0  0  0  0
 22 52  1  0  0  0  0
 22 53  1  0  0  0  0
 22 54  1  0  0  0  0
 23 55  1  0  0  0  0
 24 56  1  0  0  0  0
 24 57  1  0  0  0  0
 25 58  1  0  0  0  0
 25 59  1  0  0  0  0
 26 60  1  0  0  0  0
 27 61  1  0  0  0  0
 27 62  1  0  0  0  0
 28 63  1  0  0  0  0
 28 64  1  0  0  0  0
 30 65  1  0  0  0  0
 35 66  1  0  0  0  0
M  END
>  <energy>
307.95810452258689

$$$$
