OCCC12C3CCCC4CC5C3C4C1C52
                    3D

 35 39  0  0  0  0  0  0  0  0999 V2000
    3.5542   -0.8335   -1.5721 O   0  0  0  0  0  0  0  0  0  0  0  0
    3.3420    0.5551   -1.3394 C   0  0  0  0  0  0  0  0  0  0  0  0
    2.7746    0.7925    0.0583 C   0  0  0  0  0  0  0  0  0  0  0  0
    1.2842    0.6541    0.0849 C   0  0  0  0  0  0  0  0  0  0  0  0
    0.6280   -0.6788   -0.0496 C   0  0  0  0  0  0  0  0  0  0  0  0
    0.0741   -1.8646   -0.7959 C   0  0  0  0  0  0  0  0  0  0  0  0
   -1.2885   -2.3839    0.0775 C   0  0  0  0  0  0  0  0  0  0  0  0
   -2.5586   -1.3496    0.5824 C   0  0  0  0  0  0  0  0  0  0  0  0
   -2.2658    0.2415    1.0995 C   0  0  0  0  0  0  0  0  0  0  0  0
   -2.2738    1.4872    0.0909 C   0  0  0  0  0  0  0  0  0  0  0  0
   -0.9039    1.4175   -0.6191 C   0  0  0  0  0  0  0  0  0  0  0  0
   -0.6912    0.0339   -0.0603 C   0  0  0  0  0  0  0  0  0  0  0  0
   -0.7972    0.2265    1.5030 C   0  0  0  0  0  0  0  0  0  0  0  0
    0.4697    1.2052    1.2686 C   0  0  0  0  0  0  0  0  0  0  0  0
    0.3564    1.8748   -0.0276 C   0  0  0  0  0  0  0  0  0  0  0  0
    2.6869   -1.2691   -1.5408 H   0  0  0  0  0  0  0  0  0  0  0  0
    2.6856    0.9451   -2.1239 H   0  0  0  0  0  0  0  0  0  0  0  0
    4.3144    1.0472   -1.4344 H   0  0  0  0  0  0  0  0  0  0  0  0
    3.0434    1.8068    0.3784 H   0  0  0  0  0  0  0  0  0  0  0  0
    3.2184    0.0910    0.7755 H   0  0  0  0  0  0  0  0  0  0  0  0
    0.9139   -1.1788    0.8938 H   0  0  0  0  0  0  0  0  0  0  0  0
   -0.1961   -1.6598   -1.8410 H   0  0  0  0  0  0  0  0  0  0  0  0
    0.7949   -2.6905   -0.8162 H   0  0  0  0  0  0  0  0  0  0  0  0
   -1.7489   -3.1993   -0.4929 H   0  0  0  0  0  0  0  0  0  0  0  0
   -0.8908   -2.8216    1.0029 H   0  0  0  0  0  0  0  0  0  0  0  0
   -3.0236   -1.8698    1.4299 H   0  0  0  0  0  0  0  0  0  0  0  0
   -3.3084   -1.3091   -0.2189 H   0  0  0  0  0  0  0  0  0  0  0  0
   -2.9779    0.4263    1.9154 H   0  0  0  0  0  0  0  0  0  0  0  0
   -3.1057    1.3838   -0.6143 H   0  0  0  0  0  0  0  0  0  0  0  0
   -2.3789    2.4308    0.6381 H   0  0  0  0  0  0  0  0  0  0  0  0
   -0.9404    1.4778   -1.7098 H   0  0  0  0  0  0  0  0  0  0  0  0
   -1.3940   -0.4267   -0.7759 H   0  0  0  0  0  0  0  0  0  0  0  0
   -1.0568    0.9244    2.3117 H   0  0  0  0  0  0  0  0  0  0  0  0
    0.9580    1.6381    2.1263 H   0  0  0  0  0  0  0  0  0  0  0  0
    0.7018    2.8753   -0.2050 H   0  0  0  0  0  0  0  0  0  0  0  0
  2  1  1  0  0  0  0
  3  2  1  0  0  0  0
  4  3  1  0  0  0  0
  5  4  1  0  0  0  0
  6  5  1  0  0  0  0
  7  6  1  0  0  0  0
  8  7  1  0  0  0  0
  9  8  1  0  0  0  0
 10  9  1  0  0  0  0
 11 10  1  0  0  0  0
 12 11  1  0  0  0  0
 12  5  1  0  0  0  0
 13 12  1  0  0  0  0
 13  9  1  0  0  0  0
 14 13  1  0  0  0  0
 14  4  1  0  0  0  0
 15 14  1  0  0  0  0
 15 11  1  0  0  0  0
 15  4  1  0  0  0  0
  1 16  1  0  0  0  0
  2 17  1  0  0  0  0
  2 18  1  0  0  0  0
  3 19  1  0  0  0  0
  3 20  1  0  0  0  0
  5 21  1  0  0  0  0
  6 22  1  0  0  0  0
  6 23  1  0  0  0  0
  7 24  1  0  0  0  0
  7 25  1  0  0  0  0
  8 26  1  0  0  0  0
  8 27  1  0  0  0  0
  9 28  1  0  0  0  0
 10 29  1  0  0  0  0
 10 30  1  0  0  0  0
 11 31  1  0  0  0  0
 12 32  1  0  0  0  0
 13 33  1  0  0  0  0
 14 34  1  0  0  0  0
 15 35  1  0  0  0  0
M  END
>  <energy>
319.58510619324557

$$$$
