CCCOC12CC1C1C(Br)=C3C4CN5C3CC(CC2O)C(O)(C4C)C15
                    3D

 53 58  0  0  0  0  0  0  0  0999 V2000
   -5.2827    0.7368   -1.2009 C   0  0  0  0  0  0  0  0  0  0  0  0
   -4.9196    0.9934    0.2545 C   0  0  0  0  0  0  0  0  0  0  0  0
   -3.8767    0.0079    0.7702 C   0  0  0  0  0  0  0  0  0  0  0  0
   -2.6358    0.2648    0.1119 O   0  0  0  0  0  0  0  0  0  0  0  0
   -1.6548   -0.8043    0.2131 C   0  0  0  0  0  0  0  0  0  0  0  0
   -1.8413   -1.9826   -0.7201 C   0  0  0  0  0  0  0  0  0  0  0  0
   -0.8488   -0.9155   -1.0885 C   0  0  0  0  0  0  0  0  0  0  0  0
    0.6401   -1.1681   -1.0947 C   0  0  0  0  0  0  0  0  0  0  0  0
    1.4824   -1.0234   -2.3901 C   0  0  0  0  0  0  0  0  0  0  0  0
    0.6232   -0.6375   -3.9968 Br  0  0  0  0  0  0  0  0  0  0  0  0
    2.6725   -0.4521   -2.0678 C   0  0  0  0  0  0  0  0  0  0  0  0
    2.7013    1.3125   -1.6655 C   0  0  0  0  0  0  0  0  0  0  0  0
    3.8504    1.1043   -0.7990 C   0  0  0  0  0  0  0  0  0  0  0  0
    3.0954    0.0938   -0.0557 N   0  0  0  0  0  0  0  0  0  0  0  0
    3.2860   -1.1333   -0.7258 C   0  0  0  0  0  0  0  0  0  0  0  0
    2.6496   -1.8004    0.6103 C   0  0  0  0  0  0  0  0  0  0  0  0
    1.4727   -0.8302    1.4940 C   0  0  0  0  0  0  0  0  0  0  0  0
    0.2207   -1.6909    1.8194 C   0  0  0  0  0  0  0  0  0  0  0  0
   -1.1462   -1.0322    1.6377 C   0  0  0  0  0  0  0  0  0  0  0  0
   -2.1030   -1.8820    2.2920 O   0  0  0  0  0  0  0  0  0  0  0  0
    1.0727    0.7959    0.9051 C   0  0  0  0  0  0  0  0  0  0  0  0
    1.9584    1.3774    1.9062 O   0  0  0  0  0  0  0  0  0  0  0  0
    1.6314    2.0549   -0.3472 C   0  0  0  0  0  0  0  0  0  0  0  0
    2.1482    3.3910    0.2082 C   0  0  0  0  0  0  0  0  0  0  0  0
    1.3557    0.0342   -0.3040 C   0  0  0  0  0  0  0  0  0  0  0  0
   -4.4104    0.8435   -1.8540 H   0  0  0  0  0  0  0  0  0  0  0  0
   -6.0423    1.4529   -1.5305 H   0  0  0  0  0  0  0  0  0  0  0  0
   -5.6891   -0.2717   -1.3302 H   0  0  0  0  0  0  0  0  0  0  0  0
   -4.5334    2.0158    0.3415 H   0  0  0  0  0  0  0  0  0  0  0  0
   -5.8240    0.9226    0.8690 H   0  0  0  0  0  0  0  0  0  0  0  0
   -4.2044   -1.0230    0.5962 H   0  0  0  0  0  0  0  0  0  0  0  0
   -3.7401    0.1636    1.8451 H   0  0  0  0  0  0  0  0  0  0  0  0
   -2.7597   -2.0369   -1.2945 H   0  0  0  0  0  0  0  0  0  0  0  0
   -1.4802   -2.9525   -0.3984 H   0  0  0  0  0  0  0  0  0  0  0  0
   -1.1511   -0.2080   -1.8551 H   0  0  0  0  0  0  0  0  0  0  0  0
    0.7879   -2.1882   -0.7474 H   0  0  0  0  0  0  0  0  0  0  0  0
    2.8464    1.9586   -2.5326 H   0  0  0  0  0  0  0  0  0  0  0  0
    4.1622    1.9463   -0.1836 H   0  0  0  0  0  0  0  0  0  0  0  0
    4.7574    0.7326   -1.2947 H   0  0  0  0  0  0  0  0  0  0  0  0
    4.3231   -1.4557   -0.8688 H   0  0  0  0  0  0  0  0  0  0  0  0
    3.4699   -1.9461    1.3318 H   0  0  0  0  0  0  0  0  0  0  0  0
    2.2677   -2.8082    0.4148 H   0  0  0  0  0  0  0  0  0  0  0  0
    1.9704   -0.7045    2.4716 H   0  0  0  0  0  0  0  0  0  0  0  0
    0.3103   -1.9946    2.8725 H   0  0  0  0  0  0  0  0  0  0  0  0
    0.2416   -2.6485    1.2884 H   0  0  0  0  0  0  0  0  0  0  0  0
   -1.1625   -0.0759    2.1728 H   0  0  0  0  0  0  0  0  0  0  0  0
   -1.9029   -1.8550    3.2434 H   0  0  0  0  0  0  0  0  0  0  0  0
    2.8522    1.0948    1.6145 H   0  0  0  0  0  0  0  0  0  0  0  0
    0.7078    2.3695   -0.8788 H   0  0  0  0  0  0  0  0  0  0  0  0
    3.0157    3.2937    0.8652 H   0  0  0  0  0  0  0  0  0  0  0  0
    2.4255    4.0557   -0.6165 H   0  0  0  0  0  0  0  0  0  0  0  0
    1.3581    3.8831    0.7852 H   0  0  0  0  0  0  0  0  0  0  0  0
    0.8521    0.6214   -1.0936 H   0  0  0  0  0  0  0  0  0  0  0  0
  2  1  1  0  0  0  0
  3  2  1  0  0  0  0
  4  3  1  0  0  0  0
  5  4  1  0  0  0  0
  6  5  1  0  0  0  0
  7  6  1  0  0  0  0
  7  5  1  0  0  0  0
  8  7  1  0  0  0  0
  9  8  1  0  0  0  0
 10  9  1  0  0  0  0
 11  9  2  0  0  0  0
 12 11  1  0  0  0  0
 13 12  1  0  0  0  0
 14 13  1  0  0  0  0
 15 14  1  0  0  0  0
 15 11  1  0  0  0  0
 16 15  1  0  0  0  0
 17 16  1  0  0  0  0
 18 17  1  0  0  0  0
 19 18  1  0  0  0  0
 19  5  1  0  0  0  0
 20 19  1  0  0  0  0
 21 17  1  0  0  0  0
 22 21  1  0  0  0  0
 23 21  1  0  0  0  0
 23 12  1  0  0  0  0
 24 23  1  0  0  0  0
 25 21  1  0  0  0  0
 25  8  1  0  0  0  0
 25 14  1  0  0  0  0
  1 26  1  0  0  0  0
  1 27  1  0  0  0  0
  1 28  1  0  0  0  0
  2 29  1  0  0  0  0
  2 30  1  0  0  0  0
  3 31  1  0  0  0  0
  3 32  1  0  0  0  0
  6 33  1  0  0  0  0
  6 34  1  0  0  0  0
  7 35  1  0  0  0  0
  8 36  1  0  0  0  0
 12 37  1  0  0  0  0
 13 38  1  0  0  0  0
 13 39  1  0  0  0  0
 15 40  1  0  0  0  0
 16 41  1  0  0  0  0
 16 42  1  0  0  0  0
 17 43  1  0  0  0  0
 18 44  1  0  0  0  0
 18 45  1  0  0  0  0
 19 46  1  0  0  0  0
 20 47  1  0  0  0  0
 22 48  1  0  0  0  0
 23 49  1  0  0  0  0
 24 50  1  0  0  0  0
 24 51  1  0  0  0  0
 24 52  1  0  0  0  0
 25 53  1  0  0  0  0
M  END
>  <energy>
561.18956432559935

$$$$
