CC(C)(C)NCC1(O)Oc2c(Cl)c(Cl)c3c(c2OCCCO3)C1=O
                    3D

 43 45  0  0  0  0  0  0  0  0999 V2000
   -2.5928   -2.2015   -2.7627 C   0  0  0  0  0  0  0  0  0  0  0  0
   -2.3040   -1.0365   -1.7980 C   0  0  0  0  0  0  0  0  0  0  0  0
   -3.1337   -1.1898   -0.5112 C   0  0  0  0  0  0  0  0  0  0  0  0
   -2.7430    0.2683   -2.4858 C   0  0  0  0  0  0  0  0  0  0  0  0
   -0.8631   -0.8808   -1.5034 N   0  0  0  0  0  0  0  0  0  0  0  0
   -0.2086   -2.0869   -0.9620 C   0  0  0  0  0  0  0  0  0  0  0  0
    0.6003   -1.8775    0.3417 C   0  0  0  0  0  0  0  0  0  0  0  0
    1.1547   -3.1612    0.6777 O   0  0  0  0  0  0  0  0  0  0  0  0
   -0.3043   -1.5125    1.4063 O   0  0  0  0  0  0  0  0  0  0  0  0
    0.1154   -0.3032    1.9786 C   0  0  0  0  0  0  0  0  0  0  0  0
    1.0506   -0.4699    3.0255 C   0  0  0  0  0  0  0  0  0  0  0  0
    0.6919   -1.5513    4.3172 Cl  0  0  0  0  0  0  0  0  0  0  0  0
    2.2937    0.1712    2.8896 C   0  0  0  0  0  0  0  0  0  0  0  0
    3.4623    0.2206    4.1520 Cl  0  0  0  0  0  0  0  0  0  0  0  0
    2.5583    0.7727    1.6441 C   0  0  0  0  0  0  0  0  0  0  0  0
    1.6641    0.5151    0.6043 C   0  0  0  0  0  0  0  0  0  0  0  0
    0.3950    0.6917    1.0648 C   0  0  0  0  0  0  0  0  0  0  0  0
   -0.1290    1.9364    1.3368 O   0  0  0  0  0  0  0  0  0  0  0  0
    0.4526    3.0444    0.6265 C   0  0  0  0  0  0  0  0  0  0  0  0
    1.7130    3.5593    1.3434 C   0  0  0  0  0  0  0  0  0  0  0  0
    2.9931    2.9139    0.7798 C   0  0  0  0  0  0  0  0  0  0  0  0
    3.4557    1.8124    1.5883 O   0  0  0  0  0  0  0  0  0  0  0  0
    1.8112   -0.8944    0.0745 C   0  0  0  0  0  0  0  0  0  0  0  0
    2.8797   -1.2690   -0.4127 O   0  0  0  0  0  0  0  0  0  0  0  0
   -2.4468   -3.1787   -2.2926 H   0  0  0  0  0  0  0  0  0  0  0  0
   -1.9461   -2.1544   -3.6454 H   0  0  0  0  0  0  0  0  0  0  0  0
   -3.6323   -2.1705   -3.1092 H   0  0  0  0  0  0  0  0  0  0  0  0
   -2.9116   -2.1186    0.0228 H   0  0  0  0  0  0  0  0  0  0  0  0
   -4.2059   -1.2017   -0.7443 H   0  0  0  0  0  0  0  0  0  0  0  0
   -2.9584   -0.3537    0.1759 H   0  0  0  0  0  0  0  0  0  0  0  0
   -2.5732    1.1371   -1.8403 H   0  0  0  0  0  0  0  0  0  0  0  0
   -3.8114    0.2453   -2.7303 H   0  0  0  0  0  0  0  0  0  0  0  0
   -2.1957    0.4315   -3.4209 H   0  0  0  0  0  0  0  0  0  0  0  0
   -0.3852   -0.6105   -2.3671 H   0  0  0  0  0  0  0  0  0  0  0  0
    0.4623   -2.4794   -1.7353 H   0  0  0  0  0  0  0  0  0  0  0  0
   -0.9268   -2.8885   -0.7684 H   0  0  0  0  0  0  0  0  0  0  0  0
    2.1248   -3.0635    0.6951 H   0  0  0  0  0  0  0  0  0  0  0  0
   -0.3047    3.8405    0.6428 H   0  0  0  0  0  0  0  0  0  0  0  0
    0.6160    2.8107   -0.4336 H   0  0  0  0  0  0  0  0  0  0  0  0
    1.7811    4.6419    1.1867 H   0  0  0  0  0  0  0  0  0  0  0  0
    1.6219    3.3857    2.4234 H   0  0  0  0  0  0  0  0  0  0  0  0
    2.8819    2.5933   -0.2662 H   0  0  0  0  0  0  0  0  0  0  0  0
    3.7969    3.6618    0.7920 H   0  0  0  0  0  0  0  0  0  0  0  0
  2  1  1  0  0  0  0
  3  2  1  0  0  0  0
  4  2  1  0  0  0  0
  5  2  1  0  0  0  0
  6  5  1  0  0  0  0
  7  6  1  0  0  0  0
  8  7  1  0  0  0  0
  9  7  1  0  0  0  0
 10  9  1  0  0  0  0
 11 10  2  0  0  0  0
 12 11  1  0  0  0  0
 13 11  1  0  0  0  0
 14 13  1  0  0  0  0
 15 13  2  0  0  0  0
 16 15  1  0  0  0  0
 17 16  2  0  0  0  0
 17 10  1  0  0  0  0
 18 17  1  0  0  0  0
 19 18  1  0  0  0  0
 20 19  1  0  0  0  0
 21 20  1  0  0  0  0
 22 21  1  0  0  0  0
 22 15  1  0  0  0  0
 23 16  1  0  0  0  0
 23  7  1  0  0  0  0
 24 23  2  0  0  0  0
  1 25  1  0  0  0  0
  1 26  1  0  0  0  0
  1 27  1  0  0  0  0
  3 28  1  0  0  0  0
  3 29  1  0  0  0  0
  3 30  1  0  0  0  0
  4 31  1  0  0  0  0
  4 32  1  0  0  0  0
  4 33  1  0  0  0  0
  5 34  1  0  0  0  0
  6 35  1  0  0  0  0
  6 36  1  0  0  0  0
  8 37  1  0  0  0  0
 19 38  1  0  0  0  0
 19 39  1  0  0  0  0
 20 40  1  0  0  0  0
 20 41  1  0  0  0  0
 21 42  1  0  0  0  0
 21 43  1  0  0  0  0
M  END
>  <energy>
260.22458888349308

$$$$
