CC1=C2CC3COC4(CC5CC6CC4CC(C5)O6)OOC(OC2C)OC1(F)C3O
                    3D

 58 63  0  0  0  0  0  0  0  0999 V2000
    4.4575   -0.3847    2.5672 C   0  0  0  0  0  0  0  0  0  0  0  0
    3.7604    0.2689    1.4053 C   0  0  0  0  0  0  0  0  0  0  0  0
    3.7836   -0.1855    0.1308 C   0  0  0  0  0  0  0  0  0  0  0  0
    3.3594    0.7469   -1.0056 C   0  0  0  0  0  0  0  0  0  0  0  0
    2.1331    1.6413   -0.7079 C   0  0  0  0  0  0  0  0  0  0  0  0
    0.7985    0.9532   -1.1162 C   0  0  0  0  0  0  0  0  0  0  0  0
   -0.1979    1.0032   -0.0957 O   0  0  0  0  0  0  0  0  0  0  0  0
   -1.2090   -0.0434   -0.0988 C   0  0  0  0  0  0  0  0  0  0  0  0
   -2.1367    0.3241    1.0925 C   0  0  0  0  0  0  0  0  0  0  0  0
   -3.6531    0.1051    0.9939 C   0  0  0  0  0  0  0  0  0  0  0  0
   -4.0713   -1.2586    0.4422 C   0  0  0  0  0  0  0  0  0  0  0  0
   -4.1098   -1.3171   -1.0848 C   0  0  0  0  0  0  0  0  0  0  0  0
   -2.7369   -1.3757   -1.7283 C   0  0  0  0  0  0  0  0  0  0  0  0
   -1.9244   -0.0942   -1.4876 C   0  0  0  0  0  0  0  0  0  0  0  0
   -2.7785    1.1435   -1.8064 C   0  0  0  0  0  0  0  0  0  0  0  0
   -4.2145    1.0553   -1.2794 C   0  0  0  0  0  0  0  0  0  0  0  0
   -4.3325    1.2407    0.2246 C   0  0  0  0  0  0  0  0  0  0  0  0
   -4.8133   -0.1962   -1.6291 O   0  0  0  0  0  0  0  0  0  0  0  0
   -0.6085   -1.3514    0.0842 O   0  0  0  0  0  0  0  0  0  0  0  0
   -0.0646   -1.5003    1.4496 O   0  0  0  0  0  0  0  0  0  0  0  0
    1.3398   -1.1361    1.4260 C   0  0  0  0  0  0  0  0  0  0  0  0
    1.8748   -1.5098    0.1447 O   0  0  0  0  0  0  0  0  0  0  0  0
    3.2934   -1.6133    0.0521 C   0  0  0  0  0  0  0  0  0  0  0  0
    3.6511   -2.3424   -1.2388 C   0  0  0  0  0  0  0  0  0  0  0  0
    1.3609    0.2255    1.8479 O   0  0  0  0  0  0  0  0  0  0  0  0
    2.5159    1.0453    1.7524 C   0  0  0  0  0  0  0  0  0  0  0  0
    2.6675    1.6110    2.9843 F   0  0  0  0  0  0  0  0  0  0  0  0
    2.2441    2.1836    0.7288 C   0  0  0  0  0  0  0  0  0  0  0  0
    1.0833    2.9631    1.0493 O   0  0  0  0  0  0  0  0  0  0  0  0
    3.7520   -0.8836    3.2381 H   0  0  0  0  0  0  0  0  0  0  0  0
    4.9999    0.3736    3.1421 H   0  0  0  0  0  0  0  0  0  0  0  0
    5.1958   -1.1211    2.2331 H   0  0  0  0  0  0  0  0  0  0  0  0
    3.2113    0.2086   -1.9460 H   0  0  0  0  0  0  0  0  0  0  0  0
    4.2216    1.4030   -1.1944 H   0  0  0  0  0  0  0  0  0  0  0  0
    2.2103    2.5101   -1.3782 H   0  0  0  0  0  0  0  0  0  0  0  0
    0.3986    1.5007   -1.9785 H   0  0  0  0  0  0  0  0  0  0  0  0
    0.9682   -0.0684   -1.4646 H   0  0  0  0  0  0  0  0  0  0  0  0
   -1.8131   -0.2057    1.9955 H   0  0  0  0  0  0  0  0  0  0  0  0
   -1.9799    1.3825    1.3466 H   0  0  0  0  0  0  0  0  0  0  0  0
   -4.0243    0.1652    2.0273 H   0  0  0  0  0  0  0  0  0  0  0  0
   -3.4470   -2.0604    0.8524 H   0  0  0  0  0  0  0  0  0  0  0  0
   -5.0937   -1.4473    0.7972 H   0  0  0  0  0  0  0  0  0  0  0  0
   -4.6648   -2.2140   -1.3833 H   0  0  0  0  0  0  0  0  0  0  0  0
   -2.1975   -2.2754   -1.4148 H   0  0  0  0  0  0  0  0  0  0  0  0
   -2.8781   -1.4723   -2.8142 H   0  0  0  0  0  0  0  0  0  0  0  0
   -1.1383   -0.1301   -2.2519 H   0  0  0  0  0  0  0  0  0  0  0  0
   -2.8429    1.2111   -2.9015 H   0  0  0  0  0  0  0  0  0  0  0  0
   -2.2929    2.0659   -1.4690 H   0  0  0  0  0  0  0  0  0  0  0  0
   -4.8079    1.8372   -1.7676 H   0  0  0  0  0  0  0  0  0  0  0  0
   -5.3982    1.2333    0.4892 H   0  0  0  0  0  0  0  0  0  0  0  0
   -3.9412    2.2186    0.5278 H   0  0  0  0  0  0  0  0  0  0  0  0
    1.8056   -1.7522    2.2024 H   0  0  0  0  0  0  0  0  0  0  0  0
    3.6637   -2.2340    0.8765 H   0  0  0  0  0  0  0  0  0  0  0  0
    3.3539   -3.3946   -1.1601 H   0  0  0  0  0  0  0  0  0  0  0  0
    3.1073   -1.9493   -2.1038 H   0  0  0  0  0  0  0  0  0  0  0  0
    4.7264   -2.3040   -1.4388 H   0  0  0  0  0  0  0  0  0  0  0  0
    3.0875    2.8848    0.7768 H   0  0  0  0  0  0  0  0  0  0  0  0
    0.3452    2.3158    1.0644 H   0  0  0  0  0  0  0  0  0  0  0  0
  2  1  1  0  0  0  0
  3  2  2  0  0  0  0
  4  3  1  0  0  0  0
  5  4  1  0  0  0  0
  6  5  1  0  0  0  0
  7  6  1  0  0  0  0
  8  7  1  0  0  0  0
  9  8  1  0  0  0  0
 10  9  1  0  0  0  0
 11 10  1  0  0  0  0
 12 11  1  0  0  0  0
 13 12  1  0  0  0  0
 14 13  1  0  0  0  0
 14  8  1  0  0  0  0
 15 14  1  0  0  0  0
 16 15  1  0  0  0  0
 17 16  1  0  0  0  0
 17 10  1  0  0  0  0
 18 16  1  0  0  0  0
 18 12  1  0  0  0  0
 19  8  1  0  0  0  0
 20 19  1  0  0  0  0
 21 20  1  0  0  0  0
 22 21  1  0  0  0  0
 23 22  1  0  0  0  0
 23  3  1  0  0  0  0
 24 23  1  0  0  0  0
 25 21  1  0  0  0  0
 26 25  1  0  0  0  0
 26  2  1  0  0  0  0
 27 26  1  0  0  0  0
 28 26  1  0  0  0  0
 28  5  1  0  0  0  0
 29 28  1  0  0  0  0
  1 30  1  0  0  0  0
  1 31  1  0  0  0  0
  1 32  1  0  0  0  0
  4 33  1  0  0  0  0
  4 34  1  0  0  0  0
  5 35  1  0  0  0  0
  6 36  1  0  0  0  0
  6 37  1  0  0  0  0
  9 38  1  0  0  0  0
  9 39  1  0  0  0  0
 10 40  1  0  0  0  0
 11 41  1  0  0  0  0
 11 42  1  0  0  0  0
 12 43  1  0  0  0  0
 13 44  1  0  0  0  0
 13 45  1  0  0  0  0
 14 46  1  0  0  0  0
 15 47  1  0  0  0  0
 15 48  1  0  0  0  0
 16 49  1  0  0  0  0
 17 50  1  0  0  0  0
 17 51  1  0  0  0  0
 21 52  1  0  0  0  0
 23 53  1  0  0  0  0
 24 54  1  0  0  0  0
 24 55  1  0  0  0  0
 24 56  1  0  0  0  0
 28 57  1  0  0  0  0
 29 58  1  0  0  0  0
M  END
>  <energy>
126.91198695481961

$$$$
