COC(=O)OC1OC2C1C1CC3(C1)CC2C3(O)CC(=O)C1CCCCCCC1
                    3D

 60 64  0  0  0  0  0  0  0  0999 V2000
   -2.3976   -4.7238   -1.5105 C   0  0  0  0  0  0  0  0  0  0  0  0
   -2.9658   -3.4595   -1.8639 O   0  0  0  0  0  0  0  0  0  0  0  0
   -3.8607   -2.9951   -0.9554 C   0  0  0  0  0  0  0  0  0  0  0  0
   -4.4972   -3.6686   -0.1513 O   0  0  0  0  0  0  0  0  0  0  0  0
   -3.8548   -1.6416   -0.9930 O   0  0  0  0  0  0  0  0  0  0  0  0
   -4.0169   -1.0682    0.3175 C   0  0  0  0  0  0  0  0  0  0  0  0
   -2.7807   -1.2542    1.1953 O   0  0  0  0  0  0  0  0  0  0  0  0
   -2.2923   -0.0441    0.4946 C   0  0  0  0  0  0  0  0  0  0  0  0
   -3.7718    0.4286    0.5371 C   0  0  0  0  0  0  0  0  0  0  0  0
   -4.0659    1.5135   -0.4971 C   0  0  0  0  0  0  0  0  0  0  0  0
   -3.7835    2.9069    0.1141 C   0  0  0  0  0  0  0  0  0  0  0  0
   -2.1980    2.7685   -0.0920 C   0  0  0  0  0  0  0  0  0  0  0  0
   -2.8877    1.8903   -1.3713 C   0  0  0  0  0  0  0  0  0  0  0  0
   -2.0556    2.2868    1.5172 C   0  0  0  0  0  0  0  0  0  0  0  0
   -1.3455    1.0119    1.0922 C   0  0  0  0  0  0  0  0  0  0  0  0
   -0.7824    1.9111   -0.0563 C   0  0  0  0  0  0  0  0  0  0  0  0
   -0.3984    1.2275   -1.2733 O   0  0  0  0  0  0  0  0  0  0  0  0
    0.4700    2.7479    0.3471 C   0  0  0  0  0  0  0  0  0  0  0  0
    1.8239    2.1986   -0.0970 C   0  0  0  0  0  0  0  0  0  0  0  0
    2.6257    2.9411   -0.6684 O   0  0  0  0  0  0  0  0  0  0  0  0
    2.2009    0.7495    0.2407 C   0  0  0  0  0  0  0  0  0  0  0  0
    3.2958    0.7601    1.3105 C   0  0  0  0  0  0  0  0  0  0  0  0
    3.4163   -0.5377    2.1077 C   0  0  0  0  0  0  0  0  0  0  0  0
    3.7905   -1.8022    1.3407 C   0  0  0  0  0  0  0  0  0  0  0  0
    4.9833   -1.6560    0.4006 C   0  0  0  0  0  0  0  0  0  0  0  0
    4.5911   -1.5409   -1.0702 C   0  0  0  0  0  0  0  0  0  0  0  0
    3.9473   -0.2197   -1.4993 C   0  0  0  0  0  0  0  0  0  0  0  0
    2.4917   -0.0327   -1.0586 C   0  0  0  0  0  0  0  0  0  0  0  0
   -2.7625   -5.5065   -2.1780 H   0  0  0  0  0  0  0  0  0  0  0  0
   -1.3130   -4.6396   -1.6147 H   0  0  0  0  0  0  0  0  0  0  0  0
   -2.6005   -5.0028   -0.4720 H   0  0  0  0  0  0  0  0  0  0  0  0
   -4.9238   -1.4246    0.8254 H   0  0  0  0  0  0  0  0  0  0  0  0
   -1.8744   -0.4075   -0.4518 H   0  0  0  0  0  0  0  0  0  0  0  0
   -4.1868    0.6889    1.5216 H   0  0  0  0  0  0  0  0  0  0  0  0
   -5.0340    1.4068   -0.9905 H   0  0  0  0  0  0  0  0  0  0  0  0
   -4.2310    3.1025    1.0976 H   0  0  0  0  0  0  0  0  0  0  0  0
   -4.1882    3.7361   -0.4989 H   0  0  0  0  0  0  0  0  0  0  0  0
   -2.4444    1.0288   -1.8731 H   0  0  0  0  0  0  0  0  0  0  0  0
   -3.1597    2.5549   -2.2101 H   0  0  0  0  0  0  0  0  0  0  0  0
   -1.4508    3.0062    2.0950 H   0  0  0  0  0  0  0  0  0  0  0  0
   -2.9038    2.1272    2.1941 H   0  0  0  0  0  0  0  0  0  0  0  0
   -0.6222    0.6114    1.8076 H   0  0  0  0  0  0  0  0  0  0  0  0
   -0.3076    1.9263   -1.9500 H   0  0  0  0  0  0  0  0  0  0  0  0
    0.5349    2.8948    1.4310 H   0  0  0  0  0  0  0  0  0  0  0  0
    0.3754    3.7448   -0.1081 H   0  0  0  0  0  0  0  0  0  0  0  0
    1.3133    0.2946    0.6873 H   0  0  0  0  0  0  0  0  0  0  0  0
    3.0612    1.5509    2.0376 H   0  0  0  0  0  0  0  0  0  0  0  0
    4.2636    1.0594    0.8955 H   0  0  0  0  0  0  0  0  0  0  0  0
    2.4690   -0.7235    2.6295 H   0  0  0  0  0  0  0  0  0  0  0  0
    4.1664   -0.3777    2.8929 H   0  0  0  0  0  0  0  0  0  0  0  0
    2.9202   -2.2058    0.8117 H   0  0  0  0  0  0  0  0  0  0  0  0
    4.0444   -2.5605    2.0947 H   0  0  0  0  0  0  0  0  0  0  0  0
    5.6368   -0.8285    0.6953 H   0  0  0  0  0  0  0  0  0  0  0  0
    5.5934   -2.5651    0.4972 H   0  0  0  0  0  0  0  0  0  0  0  0
    3.9370   -2.3793   -1.3477 H   0  0  0  0  0  0  0  0  0  0  0  0
    5.5047   -1.6716   -1.6673 H   0  0  0  0  0  0  0  0  0  0  0  0
    3.9379   -0.2419   -2.5988 H   0  0  0  0  0  0  0  0  0  0  0  0
    4.5749    0.6360   -1.2319 H   0  0  0  0  0  0  0  0  0  0  0  0
    2.0065   -1.0130   -0.9936 H   0  0  0  0  0  0  0  0  0  0  0  0
    1.9817    0.4802   -1.8855 H   0  0  0  0  0  0  0  0  0  0  0  0
  2  1  1  0  0  0  0
  3  2  1  0  0  0  0
  4  3  2  0  0  0  0
  5  3  1  0  0  0  0
  6  5  1  0  0  0  0
  7  6  1  0  0  0  0
  8  7  1  0  0  0  0
  9  8  1  0  0  0  0
  9  6  1  0  0  0  0
 10  9  1  0  0  0  0
 11 10  1  0  0  0  0
 12 11  1  0  0  0  0
 13 12  1  0  0  0  0
 13 10  1  0  0  0  0
 14 12  1  0  0  0  0
 15 14  1  0  0  0  0
 15  8  1  0  0  0  0
 16 15  1  0  0  0  0
 16 12  1  0  0  0  0
 17 16  1  0  0  0  0
 18 16  1  0  0  0  0
 19 18  1  0  0  0  0
 20 19  2  0  0  0  0
 21 19  1  0  0  0  0
 22 21  1  0  0  0  0
 23 22  1  0  0  0  0
 24 23  1  0  0  0  0
 25 24  1  0  0  0  0
 26 25  1  0  0  0  0
 27 26  1  0  0  0  0
 28 27  1  0  0  0  0
 28 21  1  0  0  0  0
  1 29  1  0  0  0  0
  1 30  1  0  0  0  0
  1 31  1  0  0  0  0
  6 32  1  0  0  0  0
  8 33  1  0  0  0  0
  9 34  1  0  0  0  0
 10 35  1  0  0  0  0
 11 36  1  0  0  0  0
 11 37  1  0  0  0  0
 13 38  1  0  0  0  0
 13 39  1  0  0  0  0
 14 40  1  0  0  0  0
 14 41  1  0  0  0  0
 15 42  1  0  0  0  0
 17 43  1  0  0  0  0
 18 44  1  0  0  0  0
 18 45  1  0  0  0  0
 21 46  1  0  0  0  0
 22 47  1  0  0  0  0
 22 48  1  0  0  0  0
 23 49  1  0  0  0  0
 23 50  1  0  0  0  0
 24 51  1  0  0  0  0
 24 52  1  0  0  0  0
 25 53  1  0  0  0  0
 25 54  1  0  0  0  0
 26 55  1  0  0  0  0
 26 56  1  0  0  0  0
 27 57  1  0  0  0  0
 27 58  1  0  0  0  0
 28 59  1  0  0  0  0
 28 60  1  0  0  0  0
M  END
>  <energy>
143.1291651720878

$$$$
