COC(CC(=O)NC12C3CC4C5NC(C5C(=O)O)(C1C3)C42)C(Br)(Br)Br
                    3D

 44 48  0  0  0  0  0  0  0  0999 V2000
   -2.9278   -2.0388    1.0174 C   0  0  0  0  0  0  0  0  0  0  0  0
   -3.8707   -1.0092    0.7394 O   0  0  0  0  0  0  0  0  0  0  0  0
   -3.6774   -0.3640   -0.5464 C   0  0  0  0  0  0  0  0  0  0  0  0
   -3.3612    1.1132   -0.2230 C   0  0  0  0  0  0  0  0  0  0  0  0
   -1.8933    1.3423   -0.4761 C   0  0  0  0  0  0  0  0  0  0  0  0
   -1.4770    1.7655   -1.5481 O   0  0  0  0  0  0  0  0  0  0  0  0
   -1.0813    0.9281    0.5556 N   0  0  0  0  0  0  0  0  0  0  0  0
    0.3396    0.7046    0.3757 C   0  0  0  0  0  0  0  0  0  0  0  0
    1.3547    1.8197    0.5135 C   0  0  0  0  0  0  0  0  0  0  0  0
    2.1555    1.7590   -0.8441 C   0  0  0  0  0  0  0  0  0  0  0  0
    1.9460    0.3894   -1.5551 C   0  0  0  0  0  0  0  0  0  0  0  0
    2.8315   -0.8677   -1.2871 C   0  0  0  0  0  0  0  0  0  0  0  0
    1.8257   -2.0471   -0.5516 N   0  0  0  0  0  0  0  0  0  0  0  0
    1.8295   -0.8483    0.3109 C   0  0  0  0  0  0  0  0  0  0  0  0
    3.3620   -0.8192    0.1501 C   0  0  0  0  0  0  0  0  0  0  0  0
    4.4355    0.1896    0.5276 C   0  0  0  0  0  0  0  0  0  0  0  0
    5.0539    0.9140   -0.2445 O   0  0  0  0  0  0  0  0  0  0  0  0
    4.8056    0.1456    1.8391 O   0  0  0  0  0  0  0  0  0  0  0  0
    1.0648   -0.1959    1.4030 C   0  0  0  0  0  0  0  0  0  0  0  0
    1.6935    1.1390    1.8975 C   0  0  0  0  0  0  0  0  0  0  0  0
    0.8600   -0.1623   -0.7186 C   0  0  0  0  0  0  0  0  0  0  0  0
   -4.9145   -0.5562   -1.4722 C   0  0  0  0  0  0  0  0  0  0  0  0
   -5.1873   -2.5020   -1.7931 Br  0  0  0  0  0  0  0  0  0  0  0  0
   -6.5453    0.1991   -0.6674 Br  0  0  0  0  0  0  0  0  0  0  0  0
   -4.5723    0.2771   -3.2341 Br  0  0  0  0  0  0  0  0  0  0  0  0
   -3.1374   -2.4261    2.0189 H   0  0  0  0  0  0  0  0  0  0  0  0
   -3.0117   -2.8583    0.3014 H   0  0  0  0  0  0  0  0  0  0  0  0
   -1.9094   -1.6450    1.0089 H   0  0  0  0  0  0  0  0  0  0  0  0
   -2.8135   -0.8282   -1.0466 H   0  0  0  0  0  0  0  0  0  0  0  0
   -3.5831    1.3630    0.8225 H   0  0  0  0  0  0  0  0  0  0  0  0
   -3.9081    1.8292   -0.8430 H   0  0  0  0  0  0  0  0  0  0  0  0
   -1.5415    0.6389    1.4113 H   0  0  0  0  0  0  0  0  0  0  0  0
    0.9511    2.8304    0.6526 H   0  0  0  0  0  0  0  0  0  0  0  0
    1.6943    2.5140   -1.4982 H   0  0  0  0  0  0  0  0  0  0  0  0
    3.1869    2.0821   -0.7360 H   0  0  0  0  0  0  0  0  0  0  0  0
    1.6898    0.4941   -2.6128 H   0  0  0  0  0  0  0  0  0  0  0  0
    3.4706   -1.2701   -2.0767 H   0  0  0  0  0  0  0  0  0  0  0  0
    2.3274   -2.8730   -0.2252 H   0  0  0  0  0  0  0  0  0  0  0  0
    3.8189   -1.7774    0.4686 H   0  0  0  0  0  0  0  0  0  0  0  0
    4.3138   -0.5108    2.3645 H   0  0  0  0  0  0  0  0  0  0  0  0
    0.4816   -0.8074    2.0893 H   0  0  0  0  0  0  0  0  0  0  0  0
    2.7290    1.1497    2.2191 H   0  0  0  0  0  0  0  0  0  0  0  0
    1.1164    1.5742    2.7271 H   0  0  0  0  0  0  0  0  0  0  0  0
    0.0753   -0.7549   -1.2143 H   0  0  0  0  0  0  0  0  0  0  0  0
  2  1  1  0  0  0  0
  3  2  1  0  0  0  0
  4  3  1  0  0  0  0
  5  4  1  0  0  0  0
  6  5  2  0  0  0  0
  7  5  1  0  0  0  0
  8  7  1  0  0  0  0
  9  8  1  0  0  0  0
 10  9  1  0  0  0  0
 11 10  1  0  0  0  0
 12 11  1  0  0  0  0
 13 12  1  0  0  0  0
 14 13  1  0  0  0  0
 15 14  1  0  0  0  0
 15 12  1  0  0  0  0
 16 15  1  0  0  0  0
 17 16  2  0  0  0  0
 18 16  1  0  0  0  0
 19 14  1  0  0  0  0
 19  8  1  0  0  0  0
 20 19  1  0  0  0  0
 20  9  1  0  0  0  0
 21 14  1  0  0  0  0
 21 11  1  0  0  0  0
 21  8  1  0  0  0  0
 22  3  1  0  0  0  0
 23 22  1  0  0  0  0
 24 22  1  0  0  0  0
 25 22  1  0  0  0  0
  1 26  1  0  0  0  0
  1 27  1  0  0  0  0
  1 28  1  0  0  0  0
  3 29  1  0  0  0  0
  4 30  1  0  0  0  0
  4 31  1  0  0  0  0
  7 32  1  0  0  0  0
  9 33  1  0  0  0  0
 10 34  1  0  0  0  0
 10 35  1  0  0  0  0
 11 36  1  0  0  0  0
 12 37  1  0  0  0  0
 13 38  1  0  0  0  0
 15 39  1  0  0  0  0
 18 40  1  0  0  0  0
 19 41  1  0  0  0  0
 20 42  1  0  0  0  0
 20 43  1  0  0  0  0
 21 44  1  0  0  0  0
M  END
>  <energy>
136.52247717517909

$$$$
