COCCN(CCO)c1cc2ccccc2[nH]c2c3c4c(c(c12)C1=CC(=O)NC3=CC(=O)C=C1)n4C
                    3D

 62 67  0  0  0  0  0  0  0  0999 V2000
   -4.4292    1.9129   -1.6710 C   0  0  0  0  0  0  0  0  0  0  0  0
   -3.0529    1.5728   -1.7615 O   0  0  0  0  0  0  0  0  0  0  0  0
   -2.8185    0.2003   -2.0990 C   0  0  0  0  0  0  0  0  0  0  0  0
   -2.9619   -0.7615   -0.9080 C   0  0  0  0  0  0  0  0  0  0  0  0
   -1.9403   -0.5594    0.1547 N   0  0  0  0  0  0  0  0  0  0  0  0
   -2.4893   -0.4650    1.5265 C   0  0  0  0  0  0  0  0  0  0  0  0
   -3.1762   -1.7369    2.0396 C   0  0  0  0  0  0  0  0  0  0  0  0
   -3.6901   -1.5322    3.3563 O   0  0  0  0  0  0  0  0  0  0  0  0
   -0.6084   -1.0116   -0.0280 C   0  0  0  0  0  0  0  0  0  0  0  0
   -0.3393   -2.3196    0.1650 C   0  0  0  0  0  0  0  0  0  0  0  0
    0.8813   -3.1365    0.1278 C   0  0  0  0  0  0  0  0  0  0  0  0
    0.7256   -4.4976    0.4951 C   0  0  0  0  0  0  0  0  0  0  0  0
    1.7936   -5.3953    0.4951 C   0  0  0  0  0  0  0  0  0  0  0  0
    3.0427   -4.9594    0.0931 C   0  0  0  0  0  0  0  0  0  0  0  0
    3.2141   -3.6269   -0.2752 C   0  0  0  0  0  0  0  0  0  0  0  0
    2.1487   -2.6932   -0.2587 C   0  0  0  0  0  0  0  0  0  0  0  0
    2.4905   -1.3671   -0.5497 N   0  0  0  0  0  0  0  0  0  0  0  0
    1.7554   -0.1829   -0.6601 C   0  0  0  0  0  0  0  0  0  0  0  0
    2.5019    1.0118   -0.8708 C   0  0  0  0  0  0  0  0  0  0  0  0
    1.9721    1.8222   -1.8566 C   0  0  0  0  0  0  0  0  0  0  0  0
    0.5658    1.9531   -1.7897 C   0  0  0  0  0  0  0  0  0  0  0  0
   -0.0056    1.3624   -0.6570 C   0  0  0  0  0  0  0  0  0  0  0  0
    0.3929    0.0206   -0.4254 C   0  0  0  0  0  0  0  0  0  0  0  0
    0.0956    2.3222    0.5834 C   0  0  0  0  0  0  0  0  0  0  0  0
    0.5388    3.5750    0.3235 C   0  0  0  0  0  0  0  0  0  0  0  0
    1.8871    3.9464    0.8382 C   0  0  0  0  0  0  0  0  0  0  0  0
    2.0559    5.0232    1.4008 O   0  0  0  0  0  0  0  0  0  0  0  0
    2.9688    3.1241    0.5315 N   0  0  0  0  0  0  0  0  0  0  0  0
    2.9495    1.7271    0.4256 C   0  0  0  0  0  0  0  0  0  0  0  0
    3.0104    0.9901    1.5520 C   0  0  0  0  0  0  0  0  0  0  0  0
    2.4841    1.5778    2.7998 C   0  0  0  0  0  0  0  0  0  0  0  0
    3.2148    1.8319    3.7492 O   0  0  0  0  0  0  0  0  0  0  0  0
    0.9915    1.6650    2.9123 C   0  0  0  0  0  0  0  0  0  0  0  0
    0.0349    1.9003    1.9914 C   0  0  0  0  0  0  0  0  0  0  0  0
    1.1680    1.5331   -2.9349 N   0  0  0  0  0  0  0  0  0  0  0  0
    1.2325    2.5703   -3.9583 C   0  0  0  0  0  0  0  0  0  0  0  0
   -4.9340    1.3296   -0.8961 H   0  0  0  0  0  0  0  0  0  0  0  0
   -4.9225    1.7680   -2.6371 H   0  0  0  0  0  0  0  0  0  0  0  0
   -4.4992    2.9712   -1.4035 H   0  0  0  0  0  0  0  0  0  0  0  0
   -3.5031   -0.0984   -2.9020 H   0  0  0  0  0  0  0  0  0  0  0  0
   -1.8116    0.1331   -2.5150 H   0  0  0  0  0  0  0  0  0  0  0  0
   -2.9032   -1.7959   -1.2698 H   0  0  0  0  0  0  0  0  0  0  0  0
   -3.9626   -0.6371   -0.4828 H   0  0  0  0  0  0  0  0  0  0  0  0
   -3.1856    0.3809    1.5800 H   0  0  0  0  0  0  0  0  0  0  0  0
   -1.6845   -0.2268    2.2306 H   0  0  0  0  0  0  0  0  0  0  0  0
   -2.4860   -2.5826    2.0903 H   0  0  0  0  0  0  0  0  0  0  0  0
   -4.0127   -2.0263    1.3983 H   0  0  0  0  0  0  0  0  0  0  0  0
   -2.9245   -1.4632    3.9526 H   0  0  0  0  0  0  0  0  0  0  0  0
   -1.2103   -2.9283    0.3876 H   0  0  0  0  0  0  0  0  0  0  0  0
   -0.2488   -4.8852    0.7883 H   0  0  0  0  0  0  0  0  0  0  0  0
    1.6416   -6.4304    0.7932 H   0  0  0  0  0  0  0  0  0  0  0  0
    3.8829   -5.6477    0.0568 H   0  0  0  0  0  0  0  0  0  0  0  0
    4.2094   -3.3090   -0.5828 H   0  0  0  0  0  0  0  0  0  0  0  0
    3.3817   -1.2923   -1.0346 H   0  0  0  0  0  0  0  0  0  0  0  0
    0.4259    4.0680   -0.6390 H   0  0  0  0  0  0  0  0  0  0  0  0
    3.7207    3.4616    1.1334 H   0  0  0  0  0  0  0  0  0  0  0  0
    2.9981   -0.0928    1.5835 H   0  0  0  0  0  0  0  0  0  0  0  0
    0.6715    1.5146    3.9417 H   0  0  0  0  0  0  0  0  0  0  0  0
   -0.9949    1.8941    2.3512 H   0  0  0  0  0  0  0  0  0  0  0  0
    1.3881    3.5929   -3.5807 H   0  0  0  0  0  0  0  0  0  0  0  0
    2.0520    2.3424   -4.6534 H   0  0  0  0  0  0  0  0  0  0  0  0
    0.3068    2.5619   -4.5481 H   0  0  0  0  0  0  0  0  0  0  0  0
  2  1  1  0  0  0  0
  3  2  1  0  0  0  0
  4  3  1  0  0  0  0
  5  4  1  0  0  0  0
  6  5  1  0  0  0  0
  7  6  1  0  0  0  0
  8  7  1  0  0  0  0
  9  5  1  0  0  0  0
 10  9  2  0  0  0  0
 11 10  1  0  0  0  0
 12 11  2  0  0  0  0
 13 12  1  0  0  0  0
 14 13  2  0  0  0  0
 15 14  1  0  0  0  0
 16 15  2  0  0  0  0
 16 11  1  0  0  0  0
 17 16  1  0  0  0  0
 18 17  1  0  0  0  0
 19 18  2  0  0  0  0
 20 19  1  0  0  0  0
 21 20  2  0  0  0  0
 22 21  1  0  0  0  0
 23 22  2  0  0  0  0
 23  9  1  0  0  0  0
 23 18  1  0  0  0  0
 24 22  1  0  0  0  0
 25 24  2  0  0  0  0
 26 25  1  0  0  0  0
 27 26  2  0  0  0  0
 28 26  1  0  0  0  0
 29 28  1  0  0  0  0
 29 19  1  0  0  0  0
 30 29  2  0  0  0  0
 31 30  1  0  0  0  0
 32 31  2  0  0  0  0
 33 31  1  0  0  0  0
 34 33  2  0  0  0  0
 34 24  1  0  0  0  0
 35 21  1  0  0  0  0
 35 20  1  0  0  0  0
 36 35  1  0  0  0  0
  1 37  1  0  0  0  0
  1 38  1  0  0  0  0
  1 39  1  0  0  0  0
  3 40  1  0  0  0  0
  3 41  1  0  0  0  0
  4 42  1  0  0  0  0
  4 43  1  0  0  0  0
  6 44  1  0  0  0  0
  6 45  1  0  0  0  0
  7 46  1  0  0  0  0
  7 47  1  0  0  0  0
  8 48  1  0  0  0  0
 10 49  1  0  0  0  0
 12 50  1  0  0  0  0
 13 51  1  0  0  0  0
 14 52  1  0  0  0  0
 15 53  1  0  0  0  0
 17 54  1  0  0  0  0
 25 55  1  0  0  0  0
 28 56  1  0  0  0  0
 30 57  1  0  0  0  0
 33 58  1  0  0  0  0
 34 59  1  0  0  0  0
 36 60  1  0  0  0  0
 36 61  1  0  0  0  0
 36 62  1  0  0  0  0
M  END
>  <energy>
388.68601909349599

$$$$
