CCCCCCCCNC1NC(=O)CC2(C)C3CCC45CC1(O)C(C)(C4CCC25)C1(C)C(=O)C(=O)NCC1C(=O)C3=O
                    3D

 91 96  0  0  0  0  0  0  0  0999 V2000
   -4.6874   -1.3581   -1.5465 C   0  0  0  0  0  0  0  0  0  0  0  0
   -5.9468   -1.2634   -0.6939 C   0  0  0  0  0  0  0  0  0  0  0  0
   -5.6472   -1.0039    0.7890 C   0  0  0  0  0  0  0  0  0  0  0  0
   -5.1398   -2.2453    1.5365 C   0  0  0  0  0  0  0  0  0  0  0  0
   -4.5365   -1.9419    2.9241 C   0  0  0  0  0  0  0  0  0  0  0  0
   -3.1337   -1.3522    2.8140 C   0  0  0  0  0  0  0  0  0  0  0  0
   -2.4508   -0.9914    4.1293 C   0  0  0  0  0  0  0  0  0  0  0  0
   -0.9170   -0.8184    4.0308 C   0  0  0  0  0  0  0  0  0  0  0  0
   -0.4238    0.0461    2.9319 N   0  0  0  0  0  0  0  0  0  0  0  0
   -0.0158   -0.7241    1.7604 C   0  0  0  0  0  0  0  0  0  0  0  0
    1.4038   -0.8987    1.9439 N   0  0  0  0  0  0  0  0  0  0  0  0
    1.9828   -2.1244    1.6988 C   0  0  0  0  0  0  0  0  0  0  0  0
    2.0204   -2.9766    2.5827 O   0  0  0  0  0  0  0  0  0  0  0  0
    2.6678   -2.3400    0.3307 C   0  0  0  0  0  0  0  0  0  0  0  0
    3.1679   -1.0297   -0.3478 C   0  0  0  0  0  0  0  0  0  0  0  0
    4.0400   -0.4022    0.8076 C   0  0  0  0  0  0  0  0  0  0  0  0
    4.0110   -1.1741   -1.5651 C   0  0  0  0  0  0  0  0  0  0  0  0
    3.1210   -2.0343   -2.5997 C   0  0  0  0  0  0  0  0  0  0  0  0
    1.4744   -1.9549   -2.5529 C   0  0  0  0  0  0  0  0  0  0  0  0
    0.8549   -0.9183   -1.5540 C   0  0  0  0  0  0  0  0  0  0  0  0
   -0.1774   -1.4426   -0.5941 C   0  0  0  0  0  0  0  0  0  0  0  0
   -0.5195   -0.2182    0.3344 C   0  0  0  0  0  0  0  0  0  0  0  0
   -1.9605   -0.2831    0.3874 O   0  0  0  0  0  0  0  0  0  0  0  0
   -0.1439    1.1723   -0.6006 C   0  0  0  0  0  0  0  0  0  0  0  0
   -1.4529    2.0069   -0.8273 C   0  0  0  0  0  0  0  0  0  0  0  0
    0.0238    0.3422   -1.9874 C   0  0  0  0  0  0  0  0  0  0  0  0
    0.7890    1.0188   -3.0432 C   0  0  0  0  0  0  0  0  0  0  0  0
    2.1646    0.6811   -2.5628 C   0  0  0  0  0  0  0  0  0  0  0  0
    2.0540   -0.1703   -1.0651 C   0  0  0  0  0  0  0  0  0  0  0  0
    1.1501    2.3662   -0.1171 C   0  0  0  0  0  0  0  0  0  0  0  0
    1.2275    2.3243    1.4415 C   0  0  0  0  0  0  0  0  0  0  0  0
    0.5623    3.7931   -0.3411 C   0  0  0  0  0  0  0  0  0  0  0  0
    0.0140    4.4685    0.5243 O   0  0  0  0  0  0  0  0  0  0  0  0
    0.6853    4.3818   -1.7371 C   0  0  0  0  0  0  0  0  0  0  0  0
   -0.2298    5.0081   -2.2513 O   0  0  0  0  0  0  0  0  0  0  0  0
    1.8723    4.1372   -2.3600 N   0  0  0  0  0  0  0  0  0  0  0  0
    3.0329    3.7665   -1.6105 C   0  0  0  0  0  0  0  0  0  0  0  0
    2.8253    2.5486   -0.6574 C   0  0  0  0  0  0  0  0  0  0  0  0
    4.2357    1.6283   -0.8807 C   0  0  0  0  0  0  0  0  0  0  0  0
    5.2674    2.0486   -0.3343 O   0  0  0  0  0  0  0  0  0  0  0  0
    4.5078    0.3369   -1.9207 C   0  0  0  0  0  0  0  0  0  0  0  0
    5.1051    0.5666   -2.9708 O   0  0  0  0  0  0  0  0  0  0  0  0
   -4.9476   -1.5093   -2.6006 H   0  0  0  0  0  0  0  0  0  0  0  0
   -4.0525   -2.1905   -1.2344 H   0  0  0  0  0  0  0  0  0  0  0  0
   -4.1029   -0.4350   -1.4792 H   0  0  0  0  0  0  0  0  0  0  0  0
   -6.5530   -0.4348   -1.0821 H   0  0  0  0  0  0  0  0  0  0  0  0
   -6.5449   -2.1744   -0.8115 H   0  0  0  0  0  0  0  0  0  0  0  0
   -6.5741   -0.6716    1.2732 H   0  0  0  0  0  0  0  0  0  0  0  0
   -4.9413   -0.1711    0.8621 H   0  0  0  0  0  0  0  0  0  0  0  0
   -4.4016   -2.7879    0.9360 H   0  0  0  0  0  0  0  0  0  0  0  0
   -5.9902   -2.9240    1.6722 H   0  0  0  0  0  0  0  0  0  0  0  0
   -4.4735   -2.8786    3.4888 H   0  0  0  0  0  0  0  0  0  0  0  0
   -5.1941   -1.2665    3.4804 H   0  0  0  0  0  0  0  0  0  0  0  0
   -3.2326   -0.4198    2.2656 H   0  0  0  0  0  0  0  0  0  0  0  0
   -2.5135   -2.0549    2.2494 H   0  0  0  0  0  0  0  0  0  0  0  0
   -2.6657   -1.7532    4.8855 H   0  0  0  0  0  0  0  0  0  0  0  0
   -2.8733   -0.0511    4.5005 H   0  0  0  0  0  0  0  0  0  0  0  0
   -0.4287   -1.8005    4.0268 H   0  0  0  0  0  0  0  0  0  0  0  0
   -0.5908   -0.3509    4.9675 H   0  0  0  0  0  0  0  0  0  0  0  0
   -1.1453    0.7142    2.6954 H   0  0  0  0  0  0  0  0  0  0  0  0
   -0.4609   -1.7237    1.8664 H   0  0  0  0  0  0  0  0  0  0  0  0
    1.5060   -0.7478    2.9407 H   0  0  0  0  0  0  0  0  0  0  0  0
    3.5576   -2.9540    0.5395 H   0  0  0  0  0  0  0  0  0  0  0  0
    2.0364   -2.9929   -0.2707 H   0  0  0  0  0  0  0  0  0  0  0  0
    4.1723   -1.0712    1.6681 H   0  0  0  0  0  0  0  0  0  0  0  0
    3.6089    0.5129    1.2153 H   0  0  0  0  0  0  0  0  0  0  0  0
    5.0841   -0.2448    0.5238 H   0  0  0  0  0  0  0  0  0  0  0  0
    4.9330   -1.7343   -1.3606 H   0  0  0  0  0  0  0  0  0  0  0  0
    3.3655   -3.0949   -2.4234 H   0  0  0  0  0  0  0  0  0  0  0  0
    3.4493   -1.8350   -3.6230 H   0  0  0  0  0  0  0  0  0  0  0  0
    1.1124   -2.9622   -2.3042 H   0  0  0  0  0  0  0  0  0  0  0  0
    1.1148   -1.7664   -3.5717 H   0  0  0  0  0  0  0  0  0  0  0  0
   -1.0811   -1.7580   -1.1481 H   0  0  0  0  0  0  0  0  0  0  0  0
    0.1123   -2.3492   -0.0606 H   0  0  0  0  0  0  0  0  0  0  0  0
   -2.2689    0.4914    0.8874 H   0  0  0  0  0  0  0  0  0  0  0  0
   -1.3328    2.7381   -1.6290 H   0  0  0  0  0  0  0  0  0  0  0  0
   -2.3061    1.3999   -1.1580 H   0  0  0  0  0  0  0  0  0  0  0  0
   -1.7467    2.5277    0.0874 H   0  0  0  0  0  0  0  0  0  0  0  0
   -0.9508    0.0445   -2.3996 H   0  0  0  0  0  0  0  0  0  0  0  0
    0.5737    2.0821   -3.1210 H   0  0  0  0  0  0  0  0  0  0  0  0
    0.5947    0.5810   -4.0326 H   0  0  0  0  0  0  0  0  0  0  0  0
    2.7309    1.5930   -2.6252 H   0  0  0  0  0  0  0  0  0  0  0  0
    2.5972    0.0822   -3.3679 H   0  0  0  0  0  0  0  0  0  0  0  0
    1.8322    0.4658   -0.2495 H   0  0  0  0  0  0  0  0  0  0  0  0
    1.7721    1.4604    1.8071 H   0  0  0  0  0  0  0  0  0  0  0  0
    0.2325    2.3475    1.8941 H   0  0  0  0  0  0  0  0  0  0  0  0
    1.7588    3.1965    1.8510 H   0  0  0  0  0  0  0  0  0  0  0  0
    1.9895    4.6879   -3.2091 H   0  0  0  0  0  0  0  0  0  0  0  0
    3.8335    3.5773   -2.3323 H   0  0  0  0  0  0  0  0  0  0  0  0
    3.3272    4.6502   -1.0279 H   0  0  0  0  0  0  0  0  0  0  0  0
    3.1996    2.9800    0.2923 H   0  0  0  0  0  0  0  0  0  0  0  0
  2  1  1  0  0  0  0
  3  2  1  0  0  0  0
  4  3  1  0  0  0  0
  5  4  1  0  0  0  0
  6  5  1  0  0  0  0
  7  6  1  0  0  0  0
  8  7  1  0  0  0  0
  9  8  1  0  0  0  0
 10  9  1  0  0  0  0
 11 10  1  0  0  0  0
 12 11  1  0  0  0  0
 13 12  2  0  0  0  0
 14 12  1  0  0  0  0
 15 14  1  0  0  0  0
 16 15  1  0  0  0  0
 17 15  1  0  0  0  0
 18 17  1  0  0  0  0
 19 18  1  0  0  0  0
 20 19  1  0  0  0  0
 21 20  1  0  0  0  0
 22 21  1  0  0  0  0
 22 10  1  0  0  0  0
 23 22  1  0  0  0  0
 24 22  1  0  0  0  0
 25 24  1  0  0  0  0
 26 24  1  0  0  0  0
 26 20  1  0  0  0  0
 27 26  1  0  0  0  0
 28 27  1  0  0  0  0
 29 28  1  0  0  0  0
 29 15  1  0  0  0  0
 29 20  1  0  0  0  0
 30 24  1  0  0  0  0
 31 30  1  0  0  0  0
 32 30  1  0  0  0  0
 33 32  2  0  0  0  0
 34 32  1  0  0  0  0
 35 34  2  0  0  0  0
 36 34  1  0  0  0  0
 37 36  1  0  0  0  0
 38 37  1  0  0  0  0
 38 30  1  0  0  0  0
 39 38  1  0  0  0  0
 40 39  2  0  0  0  0
 41 39  1  0  0  0  0
 41 17  1  0  0  0  0
 42 41  2  0  0  0  0
  1 43  1  0  0  0  0
  1 44  1  0  0  0  0
  1 45  1  0  0  0  0
  2 46  1  0  0  0  0
  2 47  1  0  0  0  0
  3 48  1  0  0  0  0
  3 49  1  0  0  0  0
  4 50  1  0  0  0  0
  4 51  1  0  0  0  0
  5 52  1  0  0  0  0
  5 53  1  0  0  0  0
  6 54  1  0  0  0  0
  6 55  1  0  0  0  0
  7 56  1  0  0  0  0
  7 57  1  0  0  0  0
  8 58  1  0  0  0  0
  8 59  1  0  0  0  0
  9 60  1  0  0  0  0
 10 61  1  0  0  0  0
 11 62  1  0  0  0  0
 14 63  1  0  0  0  0
 14 64  1  0  0  0  0
 16 65  1  0  0  0  0
 16 66  1  0  0  0  0
 16 67  1  0  0  0  0
 17 68  1  0  0  0  0
 18 69  1  0  0  0  0
 18 70  1  0  0  0  0
 19 71  1  0  0  0  0
 19 72  1  0  0  0  0
 21 73  1  0  0  0  0
 21 74  1  0  0  0  0
 23 75  1  0  0  0  0
 25 76  1  0  0  0  0
 25 77  1  0  0  0  0
 25 78  1  0  0  0  0
 26 79  1  0  0  0  0
 27 80  1  0  0  0  0
 27 81  1  0  0  0  0
 28 82  1  0  0  0  0
 28 83  1  0  0  0  0
 29 84  1  0  0  0  0
 31 85  1  0  0  0  0
 31 86  1  0  0  0  0
 31 87  1  0  0  0  0
 36 88  1  0  0  0  0
 37 89  1  0  0  0  0
 37 90  1  0  0  0  0
 38 91  1  0  0  0  0
M  END
>  <energy>
441.22673243175132

$$$$
