C=CCC(Cl)CC1C=CC2(CC2)OOC1(OC(=O)Cn1ccnc1)C12C3C4(C(=O)O)CC(C31Br)C42C(=O)O
                    3D

 64 70  0  0  0  0  0  0  0  0999 V2000
   -1.6236   -5.3961    0.3238 C   0  0  0  0  0  0  0  0  0  0  0  0
   -0.8356   -4.4857   -0.2613 C   0  0  0  0  0  0  0  0  0  0  0  0
    0.2892   -3.7805    0.4534 C   0  0  0  0  0  0  0  0  0  0  0  0
    0.0726   -2.2627    0.6275 C   0  0  0  0  0  0  0  0  0  0  0  0
    1.2642   -1.6946    1.8527 Cl  0  0  0  0  0  0  0  0  0  0  0  0
    0.2373   -1.4804   -0.6959 C   0  0  0  0  0  0  0  0  0  0  0  0
   -0.7138   -0.2512   -0.9100 C   0  0  0  0  0  0  0  0  0  0  0  0
   -1.0879   -0.1633   -2.3892 C   0  0  0  0  0  0  0  0  0  0  0  0
   -1.5712    0.8823   -3.0795 C   0  0  0  0  0  0  0  0  0  0  0  0
   -1.8171    2.2357   -2.5798 C   0  0  0  0  0  0  0  0  0  0  0  0
   -2.3451    3.2455   -3.5743 C   0  0  0  0  0  0  0  0  0  0  0  0
   -3.2437    2.7400   -2.4857 C   0  0  0  0  0  0  0  0  0  0  0  0
   -0.9217    2.7755   -1.5919 O   0  0  0  0  0  0  0  0  0  0  0  0
   -1.2902    2.0896   -0.3605 O   0  0  0  0  0  0  0  0  0  0  0  0
   -0.3140    1.0611   -0.0981 C   0  0  0  0  0  0  0  0  0  0  0  0
   -0.5265    0.5884    1.2740 O   0  0  0  0  0  0  0  0  0  0  0  0
   -1.1771    1.3759    2.1621 C   0  0  0  0  0  0  0  0  0  0  0  0
   -0.8692    2.5235    2.4534 O   0  0  0  0  0  0  0  0  0  0  0  0
   -2.3840    0.6842    2.7283 C   0  0  0  0  0  0  0  0  0  0  0  0
   -2.0635   -0.4939    3.5028 N   0  0  0  0  0  0  0  0  0  0  0  0
   -1.2541   -0.5532    4.6019 C   0  0  0  0  0  0  0  0  0  0  0  0
   -1.2834   -1.8746    4.9889 C   0  0  0  0  0  0  0  0  0  0  0  0
   -2.1135   -2.6008    4.1746 N   0  0  0  0  0  0  0  0  0  0  0  0
   -2.5890   -1.7383    3.3071 C   0  0  0  0  0  0  0  0  0  0  0  0
    1.0949    1.5658   -0.2490 C   0  0  0  0  0  0  0  0  0  0  0  0
    2.1130    1.6753    0.8429 C   0  0  0  0  0  0  0  0  0  0  0  0
    3.2100    1.1493   -0.0432 C   0  0  0  0  0  0  0  0  0  0  0  0
    3.8576   -0.1886    0.3157 C   0  0  0  0  0  0  0  0  0  0  0  0
    3.7758   -1.2709   -0.2536 O   0  0  0  0  0  0  0  0  0  0  0  0
    4.6014   -0.1221    1.4464 O   0  0  0  0  0  0  0  0  0  0  0  0
    4.0225    2.3145   -0.7507 C   0  0  0  0  0  0  0  0  0  0  0  0
    2.5808    2.8900   -1.0780 C   0  0  0  0  0  0  0  0  0  0  0  0
    1.6613    2.8900    0.1079 C   0  0  0  0  0  0  0  0  0  0  0  0
    0.9626    4.4113    0.8439 Br  0  0  0  0  0  0  0  0  0  0  0  0
    2.1821    1.3606   -1.2084 C   0  0  0  0  0  0  0  0  0  0  0  0
    2.1639    0.7379   -2.5842 C   0  0  0  0  0  0  0  0  0  0  0  0
    1.4733    1.0534   -3.5451 O   0  0  0  0  0  0  0  0  0  0  0  0
    3.0873   -0.2308   -2.7648 O   0  0  0  0  0  0  0  0  0  0  0  0
   -1.5087   -5.6683    1.3716 H   0  0  0  0  0  0  0  0  0  0  0  0
   -2.4089   -5.9010   -0.2325 H   0  0  0  0  0  0  0  0  0  0  0  0
   -0.9864   -4.2736   -1.3165 H   0  0  0  0  0  0  0  0  0  0  0  0
    0.4249   -4.2473    1.4369 H   0  0  0  0  0  0  0  0  0  0  0  0
    1.2190   -3.9606   -0.1012 H   0  0  0  0  0  0  0  0  0  0  0  0
   -0.9168   -2.0892    1.0558 H   0  0  0  0  0  0  0  0  0  0  0  0
    0.0579   -2.1924   -1.5086 H   0  0  0  0  0  0  0  0  0  0  0  0
    1.2772   -1.1823   -0.8343 H   0  0  0  0  0  0  0  0  0  0  0  0
   -1.6770   -0.5676   -0.4760 H   0  0  0  0  0  0  0  0  0  0  0  0
   -1.0009   -1.0864   -2.9647 H   0  0  0  0  0  0  0  0  0  0  0  0
   -1.7744    0.7160   -4.1359 H   0  0  0  0  0  0  0  0  0  0  0  0
   -2.5720    2.9369   -4.5867 H   0  0  0  0  0  0  0  0  0  0  0  0
   -1.9637    4.2562   -3.5075 H   0  0  0  0  0  0  0  0  0  0  0  0
   -4.0577    2.0807   -2.7641 H   0  0  0  0  0  0  0  0  0  0  0  0
   -3.4890    3.4336   -1.6857 H   0  0  0  0  0  0  0  0  0  0  0  0
   -3.0540    0.4100    1.9049 H   0  0  0  0  0  0  0  0  0  0  0  0
   -2.9222    1.3715    3.3883 H   0  0  0  0  0  0  0  0  0  0  0  0
   -0.7324    0.3058    5.0003 H   0  0  0  0  0  0  0  0  0  0  0  0
   -0.7553   -2.3366    5.8140 H   0  0  0  0  0  0  0  0  0  0  0  0
   -3.2978   -1.9669    2.5221 H   0  0  0  0  0  0  0  0  0  0  0  0
    1.9616    1.3818    1.8579 H   0  0  0  0  0  0  0  0  0  0  0  0
    4.8902   -1.0483    1.5936 H   0  0  0  0  0  0  0  0  0  0  0  0
    4.6205    2.9417   -0.0826 H   0  0  0  0  0  0  0  0  0  0  0  0
    4.6247    2.0150   -1.6170 H   0  0  0  0  0  0  0  0  0  0  0  0
    2.4320    3.5282   -1.9407 H   0  0  0  0  0  0  0  0  0  0  0  0
    2.9835   -0.5190   -3.6959 H   0  0  0  0  0  0  0  0  0  0  0  0
  2  1  2  0  0  0  0
  3  2  1  0  0  0  0
  4  3  1  0  0  0  0
  5  4  1  0  0  0  0
  6  4  1  0  0  0  0
  7  6  1  0  0  0  0
  8  7  1  0  0  0  0
  9  8  2  0  0  0  0
 10  9  1  0  0  0  0
 11 10  1  0  0  0  0
 12 11  1  0  0  0  0
 12 10  1  0  0  0  0
 13 10  1  0  0  0  0
 14 13  1  0  0  0  0
 15 14  1  0  0  0  0
 15  7  1  0  0  0  0
 16 15  1  0  0  0  0
 17 16  1  0  0  0  0
 18 17  2  0  0  0  0
 19 17  1  0  0  0  0
 20 19  1  0  0  0  0
 21 20  1  0  0  0  0
 22 21  2  0  0  0  0
 23 22  1  0  0  0  0
 24 23  2  0  0  0  0
 24 20  1  0  0  0  0
 25 15  1  0  0  0  0
 26 25  1  0  0  0  0
 27 26  1  0  0  0  0
 28 27  1  0  0  0  0
 29 28  2  0  0  0  0
 30 28  1  0  0  0  0
 31 27  1  0  0  0  0
 32 31  1  0  0  0  0
 33 32  1  0  0  0  0
 33 26  1  0  0  0  0
 33 25  1  0  0  0  0
 34 33  1  0  0  0  0
 35 32  1  0  0  0  0
 35 27  1  0  0  0  0
 35 25  1  0  0  0  0
 36 35  1  0  0  0  0
 37 36  2  0  0  0  0
 38 36  1  0  0  0  0
  1 39  1  0  0  0  0
  1 40  1  0  0  0  0
  2 41  1  0  0  0  0
  3 42  1  0  0  0  0
  3 43  1  0  0  0  0
  4 44  1  0  0  0  0
  6 45  1  0  0  0  0
  6 46  1  0  0  0  0
  7 47  1  0  0  0  0
  8 48  1  0  0  0  0
  9 49  1  0  0  0  0
 11 50  1  0  0  0  0
 11 51  1  0  0  0  0
 12 52  1  0  0  0  0
 12 53  1  0  0  0  0
 19 54  1  0  0  0  0
 19 55  1  0  0  0  0
 21 56  1  0  0  0  0
 22 57  1  0  0  0  0
 24 58  1  0  0  0  0
 26 59  1  0  0  0  0
 30 60  1  0  0  0  0
 31 61  1  0  0  0  0
 31 62  1  0  0  0  0
 32 63  1  0  0  0  0
 38 64  1  0  0  0  0
M  END
>  <energy>
73.017575379923898

$$$$
