COC1(CN(C(=O)c2snnc2C(N)=O)C2CCCCC2)C2CC3CC1C32
                    3D

 53 57  0  0  0  0  0  0  0  0999 V2000
    2.7110   -0.7893   -2.1148 C   0  0  0  0  0  0  0  0  0  0  0  0
    1.9568   -0.9907   -0.9222 O   0  0  0  0  0  0  0  0  0  0  0  0
    1.8372    0.1309   -0.0040 C   0  0  0  0  0  0  0  0  0  0  0  0
    0.8637    1.2159   -0.5217 C   0  0  0  0  0  0  0  0  0  0  0  0
   -0.5248    0.7221   -0.7275 N   0  0  0  0  0  0  0  0  0  0  0  0
   -0.6569    0.0909   -1.9905 C   0  0  0  0  0  0  0  0  0  0  0  0
   -0.3023    0.6877   -3.0072 O   0  0  0  0  0  0  0  0  0  0  0  0
   -1.2716   -1.2176   -2.0316 C   0  0  0  0  0  0  0  0  0  0  0  0
   -2.1173   -1.6789   -3.4620 S   0  0  0  0  0  0  0  0  0  0  0  0
   -2.4788   -3.2020   -2.8943 N   0  0  0  0  0  0  0  0  0  0  0  0
   -1.9814   -3.4262   -1.6912 N   0  0  0  0  0  0  0  0  0  0  0  0
   -1.3198   -2.3042   -1.1768 C   0  0  0  0  0  0  0  0  0  0  0  0
   -0.7405   -2.3958    0.1445 C   0  0  0  0  0  0  0  0  0  0  0  0
    0.1307   -3.4384    0.3152 N   0  0  0  0  0  0  0  0  0  0  0  0
   -1.0136   -1.6394    1.0626 O   0  0  0  0  0  0  0  0  0  0  0  0
   -1.5074    1.8365   -0.5310 C   0  0  0  0  0  0  0  0  0  0  0  0
   -2.8739    1.7233   -1.2426 C   0  0  0  0  0  0  0  0  0  0  0  0
   -3.8543    0.7943   -0.5408 C   0  0  0  0  0  0  0  0  0  0  0  0
   -4.0631    1.2063    0.9080 C   0  0  0  0  0  0  0  0  0  0  0  0
   -2.7426    1.2945    1.6635 C   0  0  0  0  0  0  0  0  0  0  0  0
   -1.7273    2.1923    0.9595 C   0  0  0  0  0  0  0  0  0  0  0  0
    3.1673    0.8035    0.4731 C   0  0  0  0  0  0  0  0  0  0  0  0
    4.3084   -0.1416    0.9067 C   0  0  0  0  0  0  0  0  0  0  0  0
    3.5748   -0.4037    2.2282 C   0  0  0  0  0  0  0  0  0  0  0  0
    2.4036   -1.3773    2.0538 C   0  0  0  0  0  0  0  0  0  0  0  0
    1.5510   -0.2288    1.4851 C   0  0  0  0  0  0  0  0  0  0  0  0
    2.6397    0.7488    1.9065 C   0  0  0  0  0  0  0  0  0  0  0  0
    3.7704   -0.6622   -1.8805 H   0  0  0  0  0  0  0  0  0  0  0  0
    2.3541    0.0838   -2.6650 H   0  0  0  0  0  0  0  0  0  0  0  0
    2.6003   -1.6759   -2.7448 H   0  0  0  0  0  0  0  0  0  0  0  0
    1.2396    1.6578   -1.4501 H   0  0  0  0  0  0  0  0  0  0  0  0
    0.8428    2.0288    0.2093 H   0  0  0  0  0  0  0  0  0  0  0  0
    0.6730   -3.4437    1.1659 H   0  0  0  0  0  0  0  0  0  0  0  0
    0.4471   -4.0079   -0.4611 H   0  0  0  0  0  0  0  0  0  0  0  0
   -1.0299    2.7079   -1.0012 H   0  0  0  0  0  0  0  0  0  0  0  0
   -3.3246    2.7254   -1.2665 H   0  0  0  0  0  0  0  0  0  0  0  0
   -2.7676    1.4331   -2.2907 H   0  0  0  0  0  0  0  0  0  0  0  0
   -3.5001   -0.2381   -0.5784 H   0  0  0  0  0  0  0  0  0  0  0  0
   -4.8153    0.8195   -1.0664 H   0  0  0  0  0  0  0  0  0  0  0  0
   -4.5720    2.1793    0.9473 H   0  0  0  0  0  0  0  0  0  0  0  0
   -4.7244    0.4867    1.4027 H   0  0  0  0  0  0  0  0  0  0  0  0
   -2.3266    0.2926    1.7905 H   0  0  0  0  0  0  0  0  0  0  0  0
   -2.9295    1.6822    2.6728 H   0  0  0  0  0  0  0  0  0  0  0  0
   -2.0969    3.2265    1.0190 H   0  0  0  0  0  0  0  0  0  0  0  0
   -0.7940    2.1718    1.5280 H   0  0  0  0  0  0  0  0  0  0  0  0
    3.4421    1.7775    0.0717 H   0  0  0  0  0  0  0  0  0  0  0  0
    4.4994   -1.0183    0.2839 H   0  0  0  0  0  0  0  0  0  0  0  0
    5.2614    0.3831    1.0507 H   0  0  0  0  0  0  0  0  0  0  0  0
    4.1277   -0.3881    3.1636 H   0  0  0  0  0  0  0  0  0  0  0  0
    2.0213   -1.7700    3.0004 H   0  0  0  0  0  0  0  0  0  0  0  0
    2.6034   -2.2231    1.3944 H   0  0  0  0  0  0  0  0  0  0  0  0
    0.5696   -0.0554    1.9192 H   0  0  0  0  0  0  0  0  0  0  0  0
    2.4602    1.6133    2.5368 H   0  0  0  0  0  0  0  0  0  0  0  0
  2  1  1  0  0  0  0
  3  2  1  0  0  0  0
  4  3  1  0  0  0  0
  5  4  1  0  0  0  0
  6  5  1  0  0  0  0
  7  6  2  0  0  0  0
  8  6  1  0  0  0  0
  9  8  1  0  0  0  0
 10  9  1  0  0  0  0
 11 10  2  0  0  0  0
 12 11  1  0  0  0  0
 12  8  2  0  0  0  0
 13 12  1  0  0  0  0
 14 13  1  0  0  0  0
 15 13  2  0  0  0  0
 16  5  1  0  0  0  0
 17 16  1  0  0  0  0
 18 17  1  0  0  0  0
 19 18  1  0  0  0  0
 20 19  1  0  0  0  0
 21 20  1  0  0  0  0
 21 16  1  0  0  0  0
 22  3  1  0  0  0  0
 23 22  1  0  0  0  0
 24 23  1  0  0  0  0
 25 24  1  0  0  0  0
 26 25  1  0  0  0  0
 26  3  1  0  0  0  0
 27 26  1  0  0  0  0
 27 24  1  0  0  0  0
 27 22  1  0  0  0  0
  1 28  1  0  0  0  0
  1 29  1  0  0  0  0
  1 30  1  0  0  0  0
  4 31  1  0  0  0  0
  4 32  1  0  0  0  0
 14 33  1  0  0  0  0
 14 34  1  0  0  0  0
 16 35  1  0  0  0  0
 17 36  1  0  0  0  0
 17 37  1  0  0  0  0
 18 38  1  0  0  0  0
 18 39  1  0  0  0  0
 19 40  1  0  0  0  0
 19 41  1  0  0  0  0
 20 42  1  0  0  0  0
 20 43  1  0  0  0  0
 21 44  1  0  0  0  0
 21 45  1  0  0  0  0
 22 46  1  0  0  0  0
 23 47  1  0  0  0  0
 23 48  1  0  0  0  0
 24 49  1  0  0  0  0
 25 50  1  0  0  0  0
 25 51  1  0  0  0  0
 26 52  1  0  0  0  0
 27 53  1  0  0  0  0
M  END
>  <energy>
31.30268230985007

$$$$
