CCC1(O)C2CC(C)(C(C)(C)Br)CC3(C(=O)O)OC2(NC(=O)OCC(F)F)C31
                    3D

 54 56  0  0  0  0  0  0  0  0999 V2000
    2.8999   -2.8823    1.9417 C   0  0  0  0  0  0  0  0  0  0  0  0
    1.9208   -1.7765    2.3420 C   0  0  0  0  0  0  0  0  0  0  0  0
    0.9589   -1.4284    1.1876 C   0  0  0  0  0  0  0  0  0  0  0  0
    0.2403   -2.6326    0.8437 O   0  0  0  0  0  0  0  0  0  0  0  0
    0.0756   -0.1417    1.3718 C   0  0  0  0  0  0  0  0  0  0  0  0
   -1.3948   -0.3314    0.9743 C   0  0  0  0  0  0  0  0  0  0  0  0
   -1.7457   -0.4664   -0.5431 C   0  0  0  0  0  0  0  0  0  0  0  0
   -2.1547    0.9666   -1.0196 C   0  0  0  0  0  0  0  0  0  0  0  0
   -3.0285   -1.4503   -0.6976 C   0  0  0  0  0  0  0  0  0  0  0  0
   -4.2627   -1.0168    0.1240 C   0  0  0  0  0  0  0  0  0  0  0  0
   -2.7643   -2.9366   -0.3818 C   0  0  0  0  0  0  0  0  0  0  0  0
   -3.6642   -1.4690   -2.6070 Br  0  0  0  0  0  0  0  0  0  0  0  0
   -0.5832   -0.9792   -1.4549 C   0  0  0  0  0  0  0  0  0  0  0  0
    0.8442   -0.4282   -1.2518 C   0  0  0  0  0  0  0  0  0  0  0  0
    1.6807   -0.6814   -2.6121 C   0  0  0  0  0  0  0  0  0  0  0  0
    1.5118   -0.2220   -3.7379 O   0  0  0  0  0  0  0  0  0  0  0  0
    2.6966   -1.5707   -2.4610 O   0  0  0  0  0  0  0  0  0  0  0  0
    0.7928    0.9835   -0.8683 O   0  0  0  0  0  0  0  0  0  0  0  0
    1.0974    0.6448    0.5017 C   0  0  0  0  0  0  0  0  0  0  0  0
    2.0288    1.5049    1.2267 N   0  0  0  0  0  0  0  0  0  0  0  0
    2.1465    2.8583    1.1147 C   0  0  0  0  0  0  0  0  0  0  0  0
    3.0926    3.4537    1.6230 O   0  0  0  0  0  0  0  0  0  0  0  0
    1.1870    3.4388    0.3607 O   0  0  0  0  0  0  0  0  0  0  0  0
    1.5822    4.7157   -0.1697 C   0  0  0  0  0  0  0  0  0  0  0  0
    0.5121    5.2413   -1.1111 C   0  0  0  0  0  0  0  0  0  0  0  0
   -0.6307    5.5016   -0.4236 F   0  0  0  0  0  0  0  0  0  0  0  0
    0.2187    4.3114   -2.0553 F   0  0  0  0  0  0  0  0  0  0  0  0
    1.6673   -0.7038    0.0395 C   0  0  0  0  0  0  0  0  0  0  0  0
    3.6079   -2.5319    1.1859 H   0  0  0  0  0  0  0  0  0  0  0  0
    3.4805   -3.2171    2.8046 H   0  0  0  0  0  0  0  0  0  0  0  0
    2.3812   -3.7549    1.5292 H   0  0  0  0  0  0  0  0  0  0  0  0
    1.3507   -2.0981    3.2214 H   0  0  0  0  0  0  0  0  0  0  0  0
    2.4946   -0.9009    2.6585 H   0  0  0  0  0  0  0  0  0  0  0  0
   -0.2773   -2.8595    1.6356 H   0  0  0  0  0  0  0  0  0  0  0  0
    0.0767    0.2065    2.4162 H   0  0  0  0  0  0  0  0  0  0  0  0
   -1.9641    0.5097    1.3958 H   0  0  0  0  0  0  0  0  0  0  0  0
   -1.7645   -1.2053    1.5256 H   0  0  0  0  0  0  0  0  0  0  0  0
   -2.2716    1.0181   -2.1058 H   0  0  0  0  0  0  0  0  0  0  0  0
   -1.4237    1.7284   -0.7415 H   0  0  0  0  0  0  0  0  0  0  0  0
   -3.0979    1.2912   -0.5721 H   0  0  0  0  0  0  0  0  0  0  0  0
   -4.0042   -0.8410    1.1712 H   0  0  0  0  0  0  0  0  0  0  0  0
   -4.7342   -0.1105   -0.2664 H   0  0  0  0  0  0  0  0  0  0  0  0
   -5.0356   -1.7964    0.1161 H   0  0  0  0  0  0  0  0  0  0  0  0
   -2.5368   -3.0890    0.6745 H   0  0  0  0  0  0  0  0  0  0  0  0
   -3.6391   -3.5610   -0.6102 H   0  0  0  0  0  0  0  0  0  0  0  0
   -1.9467   -3.3633   -0.9643 H   0  0  0  0  0  0  0  0  0  0  0  0
   -0.8634   -0.7527   -2.4915 H   0  0  0  0  0  0  0  0  0  0  0  0
   -0.5017   -2.0665   -1.4309 H   0  0  0  0  0  0  0  0  0  0  0  0
    3.0728   -1.6375   -3.3660 H   0  0  0  0  0  0  0  0  0  0  0  0
    2.8318    1.1261    1.7160 H   0  0  0  0  0  0  0  0  0  0  0  0
    2.5123    4.5775   -0.7363 H   0  0  0  0  0  0  0  0  0  0  0  0
    1.7436    5.4316    0.6461 H   0  0  0  0  0  0  0  0  0  0  0  0
    0.8288    6.1580   -1.6227 H   0  0  0  0  0  0  0  0  0  0  0  0
    2.7547   -0.7648   -0.0459 H   0  0  0  0  0  0  0  0  0  0  0  0
  2  1  1  0  0  0  0
  3  2  1  0  0  0  0
  4  3  1  0  0  0  0
  5  3  1  0  0  0  0
  6  5  1  0  0  0  0
  7  6  1  0  0  0  0
  8  7  1  0  0  0  0
  9  7  1  0  0  0  0
 10  9  1  0  0  0  0
 11  9  1  0  0  0  0
 12  9  1  0  0  0  0
 13  7  1  0  0  0  0
 14 13  1  0  0  0  0
 15 14  1  0  0  0  0
 16 15  2  0  0  0  0
 17 15  1  0  0  0  0
 18 14  1  0  0  0  0
 19 18  1  0  0  0  0
 19  5  1  0  0  0  0
 20 19  1  0  0  0  0
 21 20  1  0  0  0  0
 22 21  2  0  0  0  0
 23 21  1  0  0  0  0
 24 23  1  0  0  0  0
 25 24  1  0  0  0  0
 26 25  1  0  0  0  0
 27 25  1  0  0  0  0
 28 19  1  0  0  0  0
 28 14  1  0  0  0  0
 28  3  1  0  0  0  0
  1 29  1  0  0  0  0
  1 30  1  0  0  0  0
  1 31  1  0  0  0  0
  2 32  1  0  0  0  0
  2 33  1  0  0  0  0
  4 34  1  0  0  0  0
  5 35  1  0  0  0  0
  6 36  1  0  0  0  0
  6 37  1  0  0  0  0
  8 38  1  0  0  0  0
  8 39  1  0  0  0  0
  8 40  1  0  0  0  0
 10 41  1  0  0  0  0
 10 42  1  0  0  0  0
 10 43  1  0  0  0  0
 11 44  1  0  0  0  0
 11 45  1  0  0  0  0
 11 46  1  0  0  0  0
 13 47  1  0  0  0  0
 13 48  1  0  0  0  0
 17 49  1  0  0  0  0
 20 50  1  0  0  0  0
 24 51  1  0  0  0  0
 24 52  1  0  0  0  0
 25 53  1  0  0  0  0
 28 54  1  0  0  0  0
M  END
>  <energy>
2.7786892340679117

$$$$
