COCC1(O)C(Br)C2(CCCO)CC3c4ccc(O)c5c4C1(OC2(F)F)C3CC5
                    3D

 54 58  0  0  0  0  0  0  0  0999 V2000
   -1.4176    4.4673   -1.4286 C   0  0  0  0  0  0  0  0  0  0  0  0
   -0.9174    3.5162   -0.4952 O   0  0  0  0  0  0  0  0  0  0  0  0
   -1.6118    2.2709   -0.5817 C   0  0  0  0  0  0  0  0  0  0  0  0
   -1.1073    1.3412    0.5337 C   0  0  0  0  0  0  0  0  0  0  0  0
   -1.3903    2.0311    1.7689 O   0  0  0  0  0  0  0  0  0  0  0  0
   -1.8761   -0.0880    0.4835 C   0  0  0  0  0  0  0  0  0  0  0  0
   -3.6958    0.1295    1.2394 Br  0  0  0  0  0  0  0  0  0  0  0  0
   -1.0556   -1.3209    1.1141 C   0  0  0  0  0  0  0  0  0  0  0  0
   -1.9302   -2.5291    1.5695 C   0  0  0  0  0  0  0  0  0  0  0  0
   -2.7504   -3.1933    0.4541 C   0  0  0  0  0  0  0  0  0  0  0  0
   -2.4646   -4.6879    0.3445 C   0  0  0  0  0  0  0  0  0  0  0  0
   -3.2485   -5.2538   -0.6962 O   0  0  0  0  0  0  0  0  0  0  0  0
    0.1648   -1.9630    0.2410 C   0  0  0  0  0  0  0  0  0  0  0  0
    1.2884   -1.0769   -0.3892 C   0  0  0  0  0  0  0  0  0  0  0  0
    2.3575   -0.3108    0.4121 C   0  0  0  0  0  0  0  0  0  0  0  0
    3.7167   -0.5858    0.4058 C   0  0  0  0  0  0  0  0  0  0  0  0
    4.5790    0.5063    0.2983 C   0  0  0  0  0  0  0  0  0  0  0  0
    4.0385    1.7566   -0.0337 C   0  0  0  0  0  0  0  0  0  0  0  0
    4.8410    2.7581   -0.4979 O   0  0  0  0  0  0  0  0  0  0  0  0
    2.6510    1.9332   -0.0837 C   0  0  0  0  0  0  0  0  0  0  0  0
    1.8556    1.0200    0.5612 C   0  0  0  0  0  0  0  0  0  0  0  0
    0.3619    0.8919    0.5272 C   0  0  0  0  0  0  0  0  0  0  0  0
    0.4722    0.3259    1.8876 O   0  0  0  0  0  0  0  0  0  0  0  0
   -0.3651   -0.7118    2.3020 C   0  0  0  0  0  0  0  0  0  0  0  0
    0.4070   -1.6317    2.9312 F   0  0  0  0  0  0  0  0  0  0  0  0
   -1.2279   -0.2462    3.2260 F   0  0  0  0  0  0  0  0  0  0  0  0
    0.5392    0.1611   -0.8643 C   0  0  0  0  0  0  0  0  0  0  0  0
    1.2505    1.1177   -1.9494 C   0  0  0  0  0  0  0  0  0  0  0  0
    1.9908    2.3804   -1.3715 C   0  0  0  0  0  0  0  0  0  0  0  0
   -0.8173    5.3773   -1.3461 H   0  0  0  0  0  0  0  0  0  0  0  0
   -1.3321    4.0830   -2.4494 H   0  0  0  0  0  0  0  0  0  0  0  0
   -2.4593    4.7120   -1.2020 H   0  0  0  0  0  0  0  0  0  0  0  0
   -1.4859    1.8404   -1.5784 H   0  0  0  0  0  0  0  0  0  0  0  0
   -2.6791    2.4756   -0.4356 H   0  0  0  0  0  0  0  0  0  0  0  0
   -0.8989    2.8752    1.7275 H   0  0  0  0  0  0  0  0  0  0  0  0
   -2.1298   -0.3498   -0.5492 H   0  0  0  0  0  0  0  0  0  0  0  0
   -2.6069   -2.2293    2.3787 H   0  0  0  0  0  0  0  0  0  0  0  0
   -1.2758   -3.2768    2.0387 H   0  0  0  0  0  0  0  0  0  0  0  0
   -2.5848   -2.7184   -0.5189 H   0  0  0  0  0  0  0  0  0  0  0  0
   -3.8208   -3.0614    0.6581 H   0  0  0  0  0  0  0  0  0  0  0  0
   -2.7195   -5.2015    1.2768 H   0  0  0  0  0  0  0  0  0  0  0  0
   -1.4086   -4.8763    0.1238 H   0  0  0  0  0  0  0  0  0  0  0  0
   -2.9736   -4.8458   -1.5342 H   0  0  0  0  0  0  0  0  0  0  0  0
   -0.3052   -2.4879   -0.6016 H   0  0  0  0  0  0  0  0  0  0  0  0
    0.6595   -2.7400    0.8381 H   0  0  0  0  0  0  0  0  0  0  0  0
    1.7598   -1.6054   -1.2259 H   0  0  0  0  0  0  0  0  0  0  0  0
    4.0950   -1.6001    0.3481 H   0  0  0  0  0  0  0  0  0  0  0  0
    5.6507    0.3364    0.2747 H   0  0  0  0  0  0  0  0  0  0  0  0
    5.7614    2.5303   -0.2875 H   0  0  0  0  0  0  0  0  0  0  0  0
   -0.3603   -0.1737   -1.3865 H   0  0  0  0  0  0  0  0  0  0  0  0
    0.5001    1.4715   -2.6667 H   0  0  0  0  0  0  0  0  0  0  0  0
    1.9603    0.5103   -2.5266 H   0  0  0  0  0  0  0  0  0  0  0  0
    1.3001    3.1953   -1.1597 H   0  0  0  0  0  0  0  0  0  0  0  0
    2.7155    2.7511   -2.1048 H   0  0  0  0  0  0  0  0  0  0  0  0
  2  1  1  0  0  0  0
  3  2  1  0  0  0  0
  4  3  1  0  0  0  0
  5  4  1  0  0  0  0
  6  4  1  0  0  0  0
  7  6  1  0  0  0  0
  8  6  1  0  0  0  0
  9  8  1  0  0  0  0
 10  9  1  0  0  0  0
 11 10  1  0  0  0  0
 12 11  1  0  0  0  0
 13  8  1  0  0  0  0
 14 13  1  0  0  0  0
 15 14  1  0  0  0  0
 16 15  2  0  0  0  0
 17 16  1  0  0  0  0
 18 17  2  0  0  0  0
 19 18  1  0  0  0  0
 20 18  1  0  0  0  0
 21 20  2  0  0  0  0
 21 15  1  0  0  0  0
 22 21  1  0  0  0  0
 22  4  1  0  0  0  0
 23 22  1  0  0  0  0
 24 23  1  0  0  0  0
 24  8  1  0  0  0  0
 25 24  1  0  0  0  0
 26 24  1  0  0  0  0
 27 22  1  0  0  0  0
 27 14  1  0  0  0  0
 28 27  1  0  0  0  0
 29 28  1  0  0  0  0
 29 20  1  0  0  0  0
  1 30  1  0  0  0  0
  1 31  1  0  0  0  0
  1 32  1  0  0  0  0
  3 33  1  0  0  0  0
  3 34  1  0  0  0  0
  5 35  1  0  0  0  0
  6 36  1  0  0  0  0
  9 37  1  0  0  0  0
  9 38  1  0  0  0  0
 10 39  1  0  0  0  0
 10 40  1  0  0  0  0
 11 41  1  0  0  0  0
 11 42  1  0  0  0  0
 12 43  1  0  0  0  0
 13 44  1  0  0  0  0
 13 45  1  0  0  0  0
 14 46  1  0  0  0  0
 16 47  1  0  0  0  0
 17 48  1  0  0  0  0
 19 49  1  0  0  0  0
 27 50  1  0  0  0  0
 28 51  1  0  0  0  0
 28 52  1  0  0  0  0
 29 53  1  0  0  0  0
 29 54  1  0  0  0  0
M  END
>  <energy>
267.84559703613172

$$$$
