CCC1=C2C(CCNCCCOC)=CC=CC3=C4C5=C[N+]6=C(C7=C2C(=C1)C=C7)C4(O)C(C5)CC6=CC=C3
                    3D

 72 78  0  0  0  0  0  0  0  0999 V2000
   -0.5348   -0.8868    4.3432 C   0  0  0  0  0  0  0  0  0  0  0  0
   -0.2643   -2.2287    3.6845 C   0  0  0  0  0  0  0  0  0  0  0  0
    0.2529   -2.2234    2.2720 C   0  0  0  0  0  0  0  0  0  0  0  0
    0.1224   -1.3560    1.2010 C   0  0  0  0  0  0  0  0  0  0  0  0
   -1.1145   -0.5251    1.1496 C   0  0  0  0  0  0  0  0  0  0  0  0
   -2.3564   -1.3567    0.7474 C   0  0  0  0  0  0  0  0  0  0  0  0
   -2.4889   -1.6233   -0.7728 C   0  0  0  0  0  0  0  0  0  0  0  0
   -2.2930   -0.4576   -1.6478 N   0  0  0  0  0  0  0  0  0  0  0  0
   -3.5308    0.2247   -2.0426 C   0  0  0  0  0  0  0  0  0  0  0  0
   -4.0395    1.2237   -1.0051 C   0  0  0  0  0  0  0  0  0  0  0  0
   -5.3363    1.9001   -1.4571 C   0  0  0  0  0  0  0  0  0  0  0  0
   -6.4765    1.4286   -0.7399 O   0  0  0  0  0  0  0  0  0  0  0  0
   -6.8120    0.0791   -1.0178 C   0  0  0  0  0  0  0  0  0  0  0  0
   -1.3719    0.7801    1.4235 C   0  0  0  0  0  0  0  0  0  0  0  0
   -0.5392    1.9652    1.4457 C   0  0  0  0  0  0  0  0  0  0  0  0
    0.6778    2.1053    1.9950 C   0  0  0  0  0  0  0  0  0  0  0  0
    1.7940    2.3510    1.0390 C   0  0  0  0  0  0  0  0  0  0  0  0
    1.4687    1.6497   -0.1816 C   0  0  0  0  0  0  0  0  0  0  0  0
    2.8130    1.6166   -0.3163 C   0  0  0  0  0  0  0  0  0  0  0  0
    3.1326    0.4103    0.3502 C   0  0  0  0  0  0  0  0  0  0  0  0
    3.6920   -0.4469   -0.5323 N   0  3  0  0  0  0  0  0  0  0  0  0
    2.5645   -0.6706   -1.2190 C   0  0  0  0  0  0  0  0  0  0  0  0
    1.7464   -1.8903   -0.9502 C   0  0  0  0  0  0  0  0  0  0  0  0
    0.9108   -2.0359    0.1233 C   0  0  0  0  0  0  0  0  0  0  0  0
    1.2489   -3.3748    0.5840 C   0  0  0  0  0  0  0  0  0  0  0  0
    0.9096   -3.4796    1.8628 C   0  0  0  0  0  0  0  0  0  0  0  0
    2.0073   -4.1145   -0.3548 C   0  0  0  0  0  0  0  0  0  0  0  0
    2.3091   -3.2148   -1.3067 C   0  0  0  0  0  0  0  0  0  0  0  0
    1.8446    0.7215   -1.7003 C   0  0  0  0  0  0  0  0  0  0  0  0
    0.6946    0.6409   -2.4886 O   0  0  0  0  0  0  0  0  0  0  0  0
    3.0688    1.4226   -2.5059 C   0  0  0  0  0  0  0  0  0  0  0  0
    3.1267    2.5328   -1.5325 C   0  0  0  0  0  0  0  0  0  0  0  0
    4.5352    0.7633   -2.4492 C   0  0  0  0  0  0  0  0  0  0  0  0
    4.8153    0.4168   -0.9635 C   0  0  0  0  0  0  0  0  0  0  0  0
    5.3689    1.4398   -0.1283 C   0  0  0  0  0  0  0  0  0  0  0  0
    4.7104    2.2286    1.2069 C   0  0  0  0  0  0  0  0  0  0  0  0
    3.4106    2.6204    1.6507 C   0  0  0  0  0  0  0  0  0  0  0  0
   -1.4376   -0.4173    3.9463 H   0  0  0  0  0  0  0  0  0  0  0  0
   -0.6979   -1.0317    5.4168 H   0  0  0  0  0  0  0  0  0  0  0  0
    0.3179   -0.2122    4.2240 H   0  0  0  0  0  0  0  0  0  0  0  0
    0.4935   -2.7180    4.3124 H   0  0  0  0  0  0  0  0  0  0  0  0
   -1.1590   -2.8583    3.7543 H   0  0  0  0  0  0  0  0  0  0  0  0
   -3.2764   -0.8666    1.0940 H   0  0  0  0  0  0  0  0  0  0  0  0
   -2.3553   -2.3249    1.2676 H   0  0  0  0  0  0  0  0  0  0  0  0
   -1.7205   -2.3564   -1.0487 H   0  0  0  0  0  0  0  0  0  0  0  0
   -3.4407   -2.1235   -0.9836 H   0  0  0  0  0  0  0  0  0  0  0  0
   -1.8382   -0.7802   -2.5002 H   0  0  0  0  0  0  0  0  0  0  0  0
   -3.3026    0.7930   -2.9549 H   0  0  0  0  0  0  0  0  0  0  0  0
   -4.3004   -0.4997   -2.3274 H   0  0  0  0  0  0  0  0  0  0  0  0
   -4.1973    0.7476   -0.0383 H   0  0  0  0  0  0  0  0  0  0  0  0
   -3.2693    1.9944   -0.8763 H   0  0  0  0  0  0  0  0  0  0  0  0
   -5.5066    1.8136   -2.5357 H   0  0  0  0  0  0  0  0  0  0  0  0
   -5.2648    2.9711   -1.2364 H   0  0  0  0  0  0  0  0  0  0  0  0
   -6.9200   -0.0785   -2.0935 H   0  0  0  0  0  0  0  0  0  0  0  0
   -7.7702   -0.1380   -0.5406 H   0  0  0  0  0  0  0  0  0  0  0  0
   -6.0648   -0.6051   -0.6060 H   0  0  0  0  0  0  0  0  0  0  0  0
   -2.4167    1.0935    1.3812 H   0  0  0  0  0  0  0  0  0  0  0  0
   -0.8153    2.6170    0.6092 H   0  0  0  0  0  0  0  0  0  0  0  0
    0.9770    1.5021    2.8495 H   0  0  0  0  0  0  0  0  0  0  0  0
    2.6217   -0.0227    1.2171 H   0  0  0  0  0  0  0  0  0  0  0  0
    1.0919   -4.3234    2.5076 H   0  0  0  0  0  0  0  0  0  0  0  0
    2.3146   -5.1458   -0.2745 H   0  0  0  0  0  0  0  0  0  0  0  0
    2.9230   -3.4028   -2.1781 H   0  0  0  0  0  0  0  0  0  0  0  0
    0.9313    0.4788   -3.4157 H   0  0  0  0  0  0  0  0  0  0  0  0
    2.8071    1.7333   -3.5190 H   0  0  0  0  0  0  0  0  0  0  0  0
    4.0581    3.0955   -1.4748 H   0  0  0  0  0  0  0  0  0  0  0  0
    2.3334    3.2754   -1.7181 H   0  0  0  0  0  0  0  0  0  0  0  0
    4.5707   -0.1372   -3.0725 H   0  0  0  0  0  0  0  0  0  0  0  0
    5.2866    1.4621   -2.8328 H   0  0  0  0  0  0  0  0  0  0  0  0
    6.0920    2.1327   -0.5695 H   0  0  0  0  0  0  0  0  0  0  0  0
    5.5413    2.5503    1.8428 H   0  0  0  0  0  0  0  0  0  0  0  0
    3.3267    3.1457    2.6075 H   0  0  0  0  0  0  0  0  0  0  0  0
  2  1  1  0  0  0  0
  3  2  1  0  0  0  0
  4  3  2  0  0  0  0
  5  4  1  0  0  0  0
  6  5  1  0  0  0  0
  7  6  1  0  0  0  0
  8  7  1  0  0  0  0
  9  8  1  0  0  0  0
 10  9  1  0  0  0  0
 11 10  1  0  0  0  0
 12 11  1  0  0  0  0
 13 12  1  0  0  0  0
 14  5  2  0  0  0  0
 15 14  1  0  0  0  0
 16 15  2  0  0  0  0
 17 16  1  0  0  0  0
 18 17  2  0  0  0  0
 19 18  1  0  0  0  0
 20 19  2  0  0  0  0
 21 20  1  0  0  0  0
 22 21  2  0  0  0  0
 23 22  1  0  0  0  0
 24 23  2  0  0  0  0
 24  4  1  0  0  0  0
 25 24  1  0  0  0  0
 26 25  2  0  0  0  0
 26  3  1  0  0  0  0
 27 25  1  0  0  0  0
 28 27  2  0  0  0  0
 28 23  1  0  0  0  0
 29 22  1  0  0  0  0
 29 18  1  0  0  0  0
 30 29  1  0  0  0  0
 31 29  1  0  0  0  0
 32 31  1  0  0  0  0
 32 19  1  0  0  0  0
 33 31  1  0  0  0  0
 34 33  1  0  0  0  0
 34 21  1  0  0  0  0
 35 34  2  0  0  0  0
 36 35  1  0  0  0  0
 37 36  2  0  0  0  0
 37 17  1  0  0  0  0
  1 38  1  0  0  0  0
  1 39  1  0  0  0  0
  1 40  1  0  0  0  0
  2 41  1  0  0  0  0
  2 42  1  0  0  0  0
  6 43  1  0  0  0  0
  6 44  1  0  0  0  0
  7 45  1  0  0  0  0
  7 46  1  0  0  0  0
  8 47  1  0  0  0  0
  9 48  1  0  0  0  0
  9 49  1  0  0  0  0
 10 50  1  0  0  0  0
 10 51  1  0  0  0  0
 11 52  1  0  0  0  0
 11 53  1  0  0  0  0
 13 54  1  0  0  0  0
 13 55  1  0  0  0  0
 13 56  1  0  0  0  0
 14 57  1  0  0  0  0
 15 58  1  0  0  0  0
 16 59  1  0  0  0  0
 20 60  1  0  0  0  0
 26 61  1  0  0  0  0
 27 62  1  0  0  0  0
 28 63  1  0  0  0  0
 30 64  1  0  0  0  0
 31 65  1  0  0  0  0
 32 66  1  0  0  0  0
 32 67  1  0  0  0  0
 33 68  1  0  0  0  0
 33 69  1  0  0  0  0
 35 70  1  0  0  0  0
 36 71  1  0  0  0  0
 37 72  1  0  0  0  0
M  CHG  1  21   1
M  END
>  <energy>
728.34568585739305

$$$$
