CC(=O)OC1CCC2(C)C(O)CC3C4CC3(CCC2C1)C4
                    3D

 49 52  0  0  0  0  0  0  0  0999 V2000
   -3.4504    3.3011   -0.7985 C   0  0  0  0  0  0  0  0  0  0  0  0
   -2.7577    2.3952    0.2052 C   0  0  0  0  0  0  0  0  0  0  0  0
   -1.7755    2.7292    0.8649 O   0  0  0  0  0  0  0  0  0  0  0  0
   -3.3291    1.1615    0.2135 O   0  0  0  0  0  0  0  0  0  0  0  0
   -2.5588   -0.0656    0.3680 C   0  0  0  0  0  0  0  0  0  0  0  0
   -2.3371   -0.5718   -1.0484 C   0  0  0  0  0  0  0  0  0  0  0  0
   -1.6651   -1.9302   -1.0511 C   0  0  0  0  0  0  0  0  0  0  0  0
   -0.2871   -1.9938   -0.3126 C   0  0  0  0  0  0  0  0  0  0  0  0
   -0.0404   -3.5204   -0.0604 C   0  0  0  0  0  0  0  0  0  0  0  0
    0.9112   -1.5329   -1.2262 C   0  0  0  0  0  0  0  0  0  0  0  0
    0.7432   -2.0855   -2.5418 O   0  0  0  0  0  0  0  0  0  0  0  0
    1.1712   -0.0304   -1.3850 C   0  0  0  0  0  0  0  0  0  0  0  0
    2.3477    0.4109   -0.5157 C   0  0  0  0  0  0  0  0  0  0  0  0
    2.9461    1.8674   -0.5698 C   0  0  0  0  0  0  0  0  0  0  0  0
    3.5557    1.5251    0.8395 C   0  0  0  0  0  0  0  0  0  0  0  0
    2.0690    0.9588    0.9473 C   0  0  0  0  0  0  0  0  0  0  0  0
    1.4763    0.2966    2.1451 C   0  0  0  0  0  0  0  0  0  0  0  0
    0.9751   -1.1290    1.8467 C   0  0  0  0  0  0  0  0  0  0  0  0
   -0.3885   -1.2919    1.0964 C   0  0  0  0  0  0  0  0  0  0  0  0
   -1.2278    0.0065    1.1184 C   0  0  0  0  0  0  0  0  0  0  0  0
    1.6989    2.3366    0.2462 C   0  0  0  0  0  0  0  0  0  0  0  0
   -2.8921    3.2991   -1.7460 H   0  0  0  0  0  0  0  0  0  0  0  0
   -4.4769    2.9698   -0.9936 H   0  0  0  0  0  0  0  0  0  0  0  0
   -3.5298    4.3266   -0.4181 H   0  0  0  0  0  0  0  0  0  0  0  0
   -3.2109   -0.7658    0.9037 H   0  0  0  0  0  0  0  0  0  0  0  0
   -1.7639    0.1615   -1.6241 H   0  0  0  0  0  0  0  0  0  0  0  0
   -3.3027   -0.6392   -1.5636 H   0  0  0  0  0  0  0  0  0  0  0  0
   -2.3630   -2.6309   -0.5667 H   0  0  0  0  0  0  0  0  0  0  0  0
   -1.5826   -2.2818   -2.0882 H   0  0  0  0  0  0  0  0  0  0  0  0
   -0.0795   -4.0911   -0.9989 H   0  0  0  0  0  0  0  0  0  0  0  0
   -0.8006   -3.9409    0.6077 H   0  0  0  0  0  0  0  0  0  0  0  0
    0.9356   -3.7056    0.3984 H   0  0  0  0  0  0  0  0  0  0  0  0
    1.8239   -2.0168   -0.8519 H   0  0  0  0  0  0  0  0  0  0  0  0
    1.6061   -2.0545   -2.9884 H   0  0  0  0  0  0  0  0  0  0  0  0
    0.2732    0.5455   -1.1720 H   0  0  0  0  0  0  0  0  0  0  0  0
    1.4111    0.2009   -2.4281 H   0  0  0  0  0  0  0  0  0  0  0  0
    3.1391   -0.3542   -0.5797 H   0  0  0  0  0  0  0  0  0  0  0  0
    3.4424    2.3518   -1.4021 H   0  0  0  0  0  0  0  0  0  0  0  0
    4.3687    0.7903    0.8714 H   0  0  0  0  0  0  0  0  0  0  0  0
    3.8179    2.3726    1.4811 H   0  0  0  0  0  0  0  0  0  0  0  0
    0.6892    0.9191    2.5854 H   0  0  0  0  0  0  0  0  0  0  0  0
    2.2360    0.2276    2.9332 H   0  0  0  0  0  0  0  0  0  0  0  0
    0.8554   -1.6224    2.8214 H   0  0  0  0  0  0  0  0  0  0  0  0
    1.7730   -1.6856    1.3445 H   0  0  0  0  0  0  0  0  0  0  0  0
   -0.9670   -1.9885    1.7227 H   0  0  0  0  0  0  0  0  0  0  0  0
   -1.4252    0.2943    2.1598 H   0  0  0  0  0  0  0  0  0  0  0  0
   -0.6310    0.8010    0.6820 H   0  0  0  0  0  0  0  0  0  0  0  0
    1.8187    3.2575    0.8316 H   0  0  0  0  0  0  0  0  0  0  0  0
    0.7583    2.4225   -0.3032 H   0  0  0  0  0  0  0  0  0  0  0  0
  2  1  1  0  0  0  0
  3  2  2  0  0  0  0
  4  2  1  0  0  0  0
  5  4  1  0  0  0  0
  6  5  1  0  0  0  0
  7  6  1  0  0  0  0
  8  7  1  0  0  0  0
  9  8  1  0  0  0  0
 10  8  1  0  0  0  0
 11 10  1  0  0  0  0
 12 10  1  0  0  0  0
 13 12  1  0  0  0  0
 14 13  1  0  0  0  0
 15 14  1  0  0  0  0
 16 15  1  0  0  0  0
 16 13  1  0  0  0  0
 17 16  1  0  0  0  0
 18 17  1  0  0  0  0
 19 18  1  0  0  0  0
 19  8  1  0  0  0  0
 20 19  1  0  0  0  0
 20  5  1  0  0  0  0
 21 16  1  0  0  0  0
 21 14  1  0  0  0  0
  1 22  1  0  0  0  0
  1 23  1  0  0  0  0
  1 24  1  0  0  0  0
  5 25  1  0  0  0  0
  6 26  1  0  0  0  0
  6 27  1  0  0  0  0
  7 28  1  0  0  0  0
  7 29  1  0  0  0  0
  9 30  1  0  0  0  0
  9 31  1  0  0  0  0
  9 32  1  0  0  0  0
 10 33  1  0  0  0  0
 11 34  1  0  0  0  0
 12 35  1  0  0  0  0
 12 36  1  0  0  0  0
 13 37  1  0  0  0  0
 14 38  1  0  0  0  0
 15 39  1  0  0  0  0
 15 40  1  0  0  0  0
 17 41  1  0  0  0  0
 17 42  1  0  0  0  0
 18 43  1  0  0  0  0
 18 44  1  0  0  0  0
 19 45  1  0  0  0  0
 20 46  1  0  0  0  0
 20 47  1  0  0  0  0
 21 48  1  0  0  0  0
 21 49  1  0  0  0  0
M  END
>  <energy>
105.02164933227159

$$$$
