C=C1C2CC3C4CC3(O)OC(C)(C)C1C(CN1CCCC1)C24
                    3D

 51 55  0  0  0  0  0  0  0  0999 V2000
    2.5201    0.3506    2.3532 C   0  0  0  0  0  0  0  0  0  0  0  0
    1.8282   -0.0994    1.2989 C   0  0  0  0  0  0  0  0  0  0  0  0
    1.5653   -1.5560    0.9969 C   0  0  0  0  0  0  0  0  0  0  0  0
    2.5972   -2.2411    0.1067 C   0  0  0  0  0  0  0  0  0  0  0  0
    2.0163   -2.2761   -1.2953 C   0  0  0  0  0  0  0  0  0  0  0  0
    0.4927   -2.1270   -1.1586 C   0  0  0  0  0  0  0  0  0  0  0  0
    0.5163   -1.2871   -2.4493 C   0  0  0  0  0  0  0  0  0  0  0  0
    2.0156   -0.9956   -2.2061 C   0  0  0  0  0  0  0  0  0  0  0  0
    2.8042   -1.1659   -3.3982 O   0  0  0  0  0  0  0  0  0  0  0  0
    2.4941    0.1889   -1.5585 O   0  0  0  0  0  0  0  0  0  0  0  0
    1.7267    1.2110   -0.9241 C   0  0  0  0  0  0  0  0  0  0  0  0
    0.8380    1.9658   -1.9276 C   0  0  0  0  0  0  0  0  0  0  0  0
    2.8395    2.2274   -0.5406 C   0  0  0  0  0  0  0  0  0  0  0  0
    0.9894    0.7758    0.3922 C   0  0  0  0  0  0  0  0  0  0  0  0
   -0.2750   -0.1010    0.2625 C   0  0  0  0  0  0  0  0  0  0  0  0
   -1.2238    0.0993    1.4847 C   0  0  0  0  0  0  0  0  0  0  0  0
   -2.6119    0.0822    1.0163 N   0  0  0  0  0  0  0  0  0  0  0  0
   -3.5709   -0.3122    2.0461 C   0  0  0  0  0  0  0  0  0  0  0  0
   -4.8883    0.0430    1.3775 C   0  0  0  0  0  0  0  0  0  0  0  0
   -4.5777    1.2898    0.5563 C   0  0  0  0  0  0  0  0  0  0  0  0
   -3.0605    1.4124    0.5852 C   0  0  0  0  0  0  0  0  0  0  0  0
    0.2283   -1.5597    0.2357 C   0  0  0  0  0  0  0  0  0  0  0  0
    3.0410   -0.3290    3.0208 H   0  0  0  0  0  0  0  0  0  0  0  0
    2.5825    1.4115    2.5805 H   0  0  0  0  0  0  0  0  0  0  0  0
    1.4721   -2.1014    1.9445 H   0  0  0  0  0  0  0  0  0  0  0  0
    3.5794   -1.7583    0.1335 H   0  0  0  0  0  0  0  0  0  0  0  0
    2.7379   -3.2721    0.4574 H   0  0  0  0  0  0  0  0  0  0  0  0
    2.3325   -3.1724   -1.8465 H   0  0  0  0  0  0  0  0  0  0  0  0
   -0.0516   -3.0719   -1.2934 H   0  0  0  0  0  0  0  0  0  0  0  0
    0.3570   -1.9047   -3.3465 H   0  0  0  0  0  0  0  0  0  0  0  0
   -0.1996   -0.4777   -2.5293 H   0  0  0  0  0  0  0  0  0  0  0  0
    3.6187   -0.6900   -3.1520 H   0  0  0  0  0  0  0  0  0  0  0  0
    0.5791    2.9641   -1.5544 H   0  0  0  0  0  0  0  0  0  0  0  0
    1.3500    2.0747   -2.8931 H   0  0  0  0  0  0  0  0  0  0  0  0
   -0.1095    1.4715   -2.1362 H   0  0  0  0  0  0  0  0  0  0  0  0
    3.6075    1.7678    0.0917 H   0  0  0  0  0  0  0  0  0  0  0  0
    3.3704    2.5711   -1.4397 H   0  0  0  0  0  0  0  0  0  0  0  0
    2.4353    3.1029   -0.0209 H   0  0  0  0  0  0  0  0  0  0  0  0
    0.7080    1.7023    0.9089 H   0  0  0  0  0  0  0  0  0  0  0  0
   -0.8263    0.1507   -0.6425 H   0  0  0  0  0  0  0  0  0  0  0  0
   -1.0705   -0.7138    2.2080 H   0  0  0  0  0  0  0  0  0  0  0  0
   -1.0096    1.0259    2.0317 H   0  0  0  0  0  0  0  0  0  0  0  0
   -3.5120   -1.3804    2.2792 H   0  0  0  0  0  0  0  0  0  0  0  0
   -3.4434    0.2618    2.9720 H   0  0  0  0  0  0  0  0  0  0  0  0
   -5.6944    0.2055    2.0982 H   0  0  0  0  0  0  0  0  0  0  0  0
   -5.2027   -0.7684    0.7061 H   0  0  0  0  0  0  0  0  0  0  0  0
   -5.0448    2.1817    0.9866 H   0  0  0  0  0  0  0  0  0  0  0  0
   -4.9520    1.1712   -0.4660 H   0  0  0  0  0  0  0  0  0  0  0  0
   -2.7794    2.1913    1.3067 H   0  0  0  0  0  0  0  0  0  0  0  0
   -2.6568    1.6923   -0.3911 H   0  0  0  0  0  0  0  0  0  0  0  0
   -0.4826   -2.2315    0.7317 H   0  0  0  0  0  0  0  0  0  0  0  0
  2  1  2  0  0  0  0
  3  2  1  0  0  0  0
  4  3  1  0  0  0  0
  5  4  1  0  0  0  0
  6  5  1  0  0  0  0
  7  6  1  0  0  0  0
  8  7  1  0  0  0  0
  8  5  1  0  0  0  0
  9  8  1  0  0  0  0
 10  8  1  0  0  0  0
 11 10  1  0  0  0  0
 12 11  1  0  0  0  0
 13 11  1  0  0  0  0
 14 11  1  0  0  0  0
 14  2  1  0  0  0  0
 15 14  1  0  0  0  0
 16 15  1  0  0  0  0
 17 16  1  0  0  0  0
 18 17  1  0  0  0  0
 19 18  1  0  0  0  0
 20 19  1  0  0  0  0
 21 20  1  0  0  0  0
 21 17  1  0  0  0  0
 22 15  1  0  0  0  0
 22  3  1  0  0  0  0
 22  6  1  0  0  0  0
  1 23  1  0  0  0  0
  1 24  1  0  0  0  0
  3 25  1  0  0  0  0
  4 26  1  0  0  0  0
  4 27  1  0  0  0  0
  5 28  1  0  0  0  0
  6 29  1  0  0  0  0
  7 30  1  0  0  0  0
  7 31  1  0  0  0  0
  9 32  1  0  0  0  0
 12 33  1  0  0  0  0
 12 34  1  0  0  0  0
 12 35  1  0  0  0  0
 13 36  1  0  0  0  0
 13 37  1  0  0  0  0
 13 38  1  0  0  0  0
 14 39  1  0  0  0  0
 15 40  1  0  0  0  0
 16 41  1  0  0  0  0
 16 42  1  0  0  0  0
 18 43  1  0  0  0  0
 18 44  1  0  0  0  0
 19 45  1  0  0  0  0
 19 46  1  0  0  0  0
 20 47  1  0  0  0  0
 20 48  1  0  0  0  0
 21 49  1  0  0  0  0
 21 50  1  0  0  0  0
 22 51  1  0  0  0  0
M  END
>  <energy>
73.540906856712212

$$$$
