COc1ccc2[nH]c3ccccc3c(=O)c(=NC(=O)N=C3Nc4ccccc4C4=C(c5ccccc5)n5c3c(c(=S)c3ccccc3
                    3D

 77 85  0  0  0  0  0  0  0  0999 V2000
    2.8075   -0.6197    4.8356 C   0  0  0  0  0  0  0  0  0  0  0  0
    3.7877   -1.0522    3.8968 O   0  0  0  0  0  0  0  0  0  0  0  0
    3.4759   -0.7166    2.6096 C   0  0  0  0  0  0  0  0  0  0  0  0
    3.4844   -1.7484    1.6798 C   0  0  0  0  0  0  0  0  0  0  0  0
    3.2137   -1.4803    0.3368 C   0  0  0  0  0  0  0  0  0  0  0  0
    2.9253   -0.1807   -0.1137 C   0  0  0  0  0  0  0  0  0  0  0  0
    2.6751   -0.0276   -1.4860 N   0  0  0  0  0  0  0  0  0  0  0  0
    2.7800    1.0469   -2.3864 C   0  0  0  0  0  0  0  0  0  0  0  0
    2.3980    0.7943   -3.7238 C   0  0  0  0  0  0  0  0  0  0  0  0
    2.5030    1.7637   -4.7238 C   0  0  0  0  0  0  0  0  0  0  0  0
    3.0080    3.0179   -4.4069 C   0  0  0  0  0  0  0  0  0  0  0  0
    3.3929    3.2999   -3.0926 C   0  0  0  0  0  0  0  0  0  0  0  0
    3.2577    2.3285   -2.0820 C   0  0  0  0  0  0  0  0  0  0  0  0
    3.6373    2.7188   -0.7058 C   0  0  0  0  0  0  0  0  0  0  0  0
    4.5954    3.4358   -0.4554 O   0  0  0  0  0  0  0  0  0  0  0  0
    2.7526    2.2417    0.4224 C   0  0  0  0  0  0  0  0  0  0  0  0
    1.8941    3.0948    0.8914 N   0  0  0  0  0  0  0  0  0  0  0  0
    0.8579    2.6186    1.6460 C   0  0  0  0  0  0  0  0  0  0  0  0
    0.9342    2.4189    2.8529 O   0  0  0  0  0  0  0  0  0  0  0  0
   -0.2697    2.3937    0.9163 N   0  0  0  0  0  0  0  0  0  0  0  0
   -1.2524    1.6308    1.3192 C   0  0  0  0  0  0  0  0  0  0  0  0
   -1.3124    1.0396    2.5740 N   0  0  0  0  0  0  0  0  0  0  0  0
   -1.6332   -0.2913    2.9902 C   0  0  0  0  0  0  0  0  0  0  0  0
   -1.1485   -0.6821    4.2550 C   0  0  0  0  0  0  0  0  0  0  0  0
   -1.3940   -1.9564    4.7757 C   0  0  0  0  0  0  0  0  0  0  0  0
   -2.1610   -2.8697    4.0584 C   0  0  0  0  0  0  0  0  0  0  0  0
   -2.6978   -2.5020    2.8269 C   0  0  0  0  0  0  0  0  0  0  0  0
   -2.4490   -1.2260    2.2999 C   0  0  0  0  0  0  0  0  0  0  0  0
   -3.1512   -0.7928    1.0799 C   0  0  0  0  0  0  0  0  0  0  0  0
   -2.3932   -0.7812   -0.0658 C   0  0  0  0  0  0  0  0  0  0  0  0
   -1.6414   -1.9961   -0.4817 C   0  0  0  0  0  0  0  0  0  0  0  0
   -0.3815   -2.3219    0.0417 C   0  0  0  0  0  0  0  0  0  0  0  0
    0.2689   -3.4903   -0.3641 C   0  0  0  0  0  0  0  0  0  0  0  0
   -0.3118   -4.3202   -1.3223 C   0  0  0  0  0  0  0  0  0  0  0  0
   -1.5637   -4.0056   -1.8480 C   0  0  0  0  0  0  0  0  0  0  0  0
   -2.2315   -2.8556   -1.4222 C   0  0  0  0  0  0  0  0  0  0  0  0
   -1.9861    0.4361   -0.6708 N   0  0  0  0  0  0  0  0  0  0  0  0
   -2.2336    1.5323    0.1615 C   0  0  0  0  0  0  0  0  0  0  0  0
   -3.4703    2.0558    0.1359 C   0  0  0  0  0  0  0  0  0  0  0  0
   -4.1710    2.0606   -1.2100 C   0  0  0  0  0  0  0  0  0  0  0  0
   -5.7575    2.6064   -1.4208 S   0  0  0  0  0  0  0  0  0  0  0  0
   -3.3411    1.5630   -2.3625 C   0  0  0  0  0  0  0  0  0  0  0  0
   -3.5600    1.9231   -3.6975 C   0  0  0  0  0  0  0  0  0  0  0  0
   -2.7287    1.4210   -4.7022 C   0  0  0  0  0  0  0  0  0  0  0  0
   -1.6873    0.5524   -4.3828 C   0  0  0  0  0  0  0  0  0  0  0  0
   -1.4714    0.1795   -3.0598 C   0  0  0  0  0  0  0  0  0  0  0  0
   -2.2910    0.6826   -2.0432 C   0  0  0  0  0  0  0  0  0  0  0  0
   -4.2014    1.5830    1.3149 C   0  0  0  0  0  0  0  0  0  0  0  0
   -4.8844    2.3150    2.0116 O   0  0  0  0  0  0  0  0  0  0  0  0
   -4.0994    0.2258    1.5233 O   0  0  0  0  0  0  0  0  0  0  0  0
    2.9660    0.8469    0.8331 C   0  0  0  0  0  0  0  0  0  0  0  0
    3.2477    0.5892    2.1867 C   0  0  0  0  0  0  0  0  0  0  0  0
    2.8367    0.4651    4.9740 H   0  0  0  0  0  0  0  0  0  0  0  0
    1.8064   -0.9504    4.5394 H   0  0  0  0  0  0  0  0  0  0  0  0
    3.0405   -1.0886    5.7976 H   0  0  0  0  0  0  0  0  0  0  0  0
    3.6977   -2.7659    1.9994 H   0  0  0  0  0  0  0  0  0  0  0  0
    3.2494   -2.3081   -0.3681 H   0  0  0  0  0  0  0  0  0  0  0  0
    2.4226   -0.8997   -1.9412 H   0  0  0  0  0  0  0  0  0  0  0  0
    2.0118   -0.1819   -4.0085 H   0  0  0  0  0  0  0  0  0  0  0  0
    2.1948    1.5377   -5.7413 H   0  0  0  0  0  0  0  0  0  0  0  0
    3.0989    3.7787   -5.1789 H   0  0  0  0  0  0  0  0  0  0  0  0
    3.7810    4.2906   -2.8539 H   0  0  0  0  0  0  0  0  0  0  0  0
   -0.5649    1.4029    3.1697 H   0  0  0  0  0  0  0  0  0  0  0  0
   -0.5580    0.0062    4.8593 H   0  0  0  0  0  0  0  0  0  0  0  0
   -0.9868   -2.2296    5.7472 H   0  0  0  0  0  0  0  0  0  0  0  0
   -2.3552   -3.8608    4.4627 H   0  0  0  0  0  0  0  0  0  0  0  0
   -3.3421   -3.1945    2.2885 H   0  0  0  0  0  0  0  0  0  0  0  0
    0.0894   -1.6840    0.7864 H   0  0  0  0  0  0  0  0  0  0  0  0
    1.2232   -3.7635    0.0774 H   0  0  0  0  0  0  0  0  0  0  0  0
    0.1975   -5.2271   -1.6435 H   0  0  0  0  0  0  0  0  0  0  0  0
   -2.0288   -4.6626   -2.5778 H   0  0  0  0  0  0  0  0  0  0  0  0
   -3.2131   -2.6211   -1.8338 H   0  0  0  0  0  0  0  0  0  0  0  0
   -4.3527    2.6141   -3.9695 H   0  0  0  0  0  0  0  0  0  0  0  0
   -2.8983    1.7126   -5.7369 H   0  0  0  0  0  0  0  0  0  0  0  0
   -1.0359    0.1797   -5.1662 H   0  0  0  0  0  0  0  0  0  0  0  0
   -0.6291   -0.4658   -2.8151 H   0  0  0  0  0  0  0  0  0  0  0  0
    3.3271    1.4162    2.8880 H   0  0  0  0  0  0  0  0  0  0  0  0
  2  1  1  0  0  0  0
  3  2  1  0  0  0  0
  4  3  2  0  0  0  0
  5  4  1  0  0  0  0
  6  5  2  0  0  0  0
  7  6  1  0  0  0  0
  8  7  1  0  0  0  0
  9  8  2  0  0  0  0
 10  9  1  0  0  0  0
 11 10  2  0  0  0  0
 12 11  1  0  0  0  0
 13 12  2  0  0  0  0
 13  8  1  0  0  0  0
 14 13  1  0  0  0  0
 15 14  2  0  0  0  0
 16 14  1  0  0  0  0
 17 16  2  0  0  0  0
 18 17  1  0  0  0  0
 19 18  2  0  0  0  0
 20 18  1  0  0  0  0
 21 20  2  0  0  0  0
 22 21  1  0  0  0  0
 23 22  1  0  0  0  0
 24 23  2  0  0  0  0
 25 24  1  0  0  0  0
 26 25  2  0  0  0  0
 27 26  1  0  0  0  0
 28 27  2  0  0  0  0
 28 23  1  0  0  0  0
 29 28  1  0  0  0  0
 30 29  2  0  0  0  0
 31 30  1  0  0  0  0
 32 31  2  0  0  0  0
 33 32  1  0  0  0  0
 34 33  2  0  0  0  0
 35 34  1  0  0  0  0
 36 35  2  0  0  0  0
 36 31  1  0  0  0  0
 37 30  1  0  0  0  0
 38 37  1  0  0  0  0
 38 21  1  0  0  0  0
 39 38  2  0  0  0  0
 40 39  1  0  0  0  0
 41 40  2  0  0  0  0
 42 40  1  0  0  0  0
 43 42  2  0  0  0  0
 44 43  1  0  0  0  0
 45 44  2  0  0  0  0
 46 45  1  0  0  0  0
 47 46  2  0  0  0  0
 47 42  1  0  0  0  0
 47 37  1  0  0  0  0
 48 39  1  0  0  0  0
 49 48  2  0  0  0  0
 50 48  1  0  0  0  0
 50 29  1  0  0  0  0
 51 16  1  0  0  0  0
 51  6  1  0  0  0  0
 52 51  2  0  0  0  0
 52  3  1  0  0  0  0
  1 53  1  0  0  0  0
  1 54  1  0  0  0  0
  1 55  1  0  0  0  0
  4 56  1  0  0  0  0
  5 57  1  0  0  0  0
  7 58  1  0  0  0  0
  9 59  1  0  0  0  0
 10 60  1  0  0  0  0
 11 61  1  0  0  0  0
 12 62  1  0  0  0  0
 22 63  1  0  0  0  0
 24 64  1  0  0  0  0
 25 65  1  0  0  0  0
 26 66  1  0  0  0  0
 27 67  1  0  0  0  0
 32 68  1  0  0  0  0
 33 69  1  0  0  0  0
 34 70  1  0  0  0  0
 35 71  1  0  0  0  0
 36 72  1  0  0  0  0
 43 73  1  0  0  0  0
 44 74  1  0  0  0  0
 45 75  1  0  0  0  0
 46 76  1  0  0  0  0
 52 77  1  0  0  0  0
M  END
>  <energy>
278.82722560301954

$$$$
