O=C1c2ccccc2S(=O)(=O)NC2c3cccn(c(=O)c4c5c6[nH]c7ccccc7c6c6c7nc(cc6n5ccn3-4)C=CC=
                    3D

 81 90  0  0  0  0  0  0  0  0999 V2000
    5.0760   -0.0005    1.3478 O   0  0  0  0  0  0  0  0  0  0  0  0
    4.0649   -0.2271    0.6764 C   0  0  0  0  0  0  0  0  0  0  0  0
    4.1223    0.1733   -0.7480 C   0  0  0  0  0  0  0  0  0  0  0  0
    4.5078    1.4878   -1.0583 C   0  0  0  0  0  0  0  0  0  0  0  0
    4.5980    1.8940   -2.3948 C   0  0  0  0  0  0  0  0  0  0  0  0
    4.3489    0.9883   -3.4245 C   0  0  0  0  0  0  0  0  0  0  0  0
    3.9838   -0.3172   -3.1233 C   0  0  0  0  0  0  0  0  0  0  0  0
    3.8509   -0.7108   -1.7890 C   0  0  0  0  0  0  0  0  0  0  0  0
    3.1279   -2.2623   -1.4463 S   0  0  0  0  0  0  0  0  0  0  0  0
    2.7574   -2.9039   -2.6898 O   0  0  0  0  0  0  0  0  0  0  0  0
    3.8913   -2.9518   -0.4399 O   0  0  0  0  0  0  0  0  0  0  0  0
    1.7036   -1.7247   -0.8121 N   0  0  0  0  0  0  0  0  0  0  0  0
    1.5504   -0.9015    0.4016 C   0  0  0  0  0  0  0  0  0  0  0  0
    0.2590   -1.4234    1.1052 C   0  0  0  0  0  0  0  0  0  0  0  0
   -0.0135   -2.7570    0.9801 C   0  0  0  0  0  0  0  0  0  0  0  0
   -1.0157   -3.6425    1.5334 C   0  0  0  0  0  0  0  0  0  0  0  0
   -1.6864   -3.4942    2.6846 C   0  0  0  0  0  0  0  0  0  0  0  0
   -1.7700   -2.2936    3.3478 N   0  0  0  0  0  0  0  0  0  0  0  0
   -2.5937   -1.3171    2.7874 C   0  0  0  0  0  0  0  0  0  0  0  0
   -3.7506   -1.1253    3.1621 O   0  0  0  0  0  0  0  0  0  0  0  0
   -1.9586   -0.5901    1.6183 C   0  0  0  0  0  0  0  0  0  0  0  0
   -2.6934    0.4449    1.1203 C   0  0  0  0  0  0  0  0  0  0  0  0
   -3.2111    0.1669   -0.1848 C   0  0  0  0  0  0  0  0  0  0  0  0
   -3.7030   -1.0452   -0.5758 N   0  0  0  0  0  0  0  0  0  0  0  0
   -3.8463   -1.0573   -1.9488 C   0  0  0  0  0  0  0  0  0  0  0  0
   -4.2194   -2.1035   -2.7992 C   0  0  0  0  0  0  0  0  0  0  0  0
   -4.2893   -1.8386   -4.1676 C   0  0  0  0  0  0  0  0  0  0  0  0
   -4.0078   -0.5685   -4.6630 C   0  0  0  0  0  0  0  0  0  0  0  0
   -3.6495    0.4736   -3.8040 C   0  0  0  0  0  0  0  0  0  0  0  0
   -3.5467    0.2285   -2.4177 C   0  0  0  0  0  0  0  0  0  0  0  0
   -3.1800    1.0018   -1.2798 C   0  0  0  0  0  0  0  0  0  0  0  0
   -2.7379    2.3632   -1.0552 C   0  0  0  0  0  0  0  0  0  0  0  0
   -2.4889    3.2727   -2.0749 C   0  0  0  0  0  0  0  0  0  0  0  0
   -2.5783    4.5806   -1.8187 N   0  0  0  0  0  0  0  0  0  0  0  0
   -1.9689    4.9279   -0.6802 C   0  0  0  0  0  0  0  0  0  0  0  0
   -2.0369    4.1301    0.4491 C   0  0  0  0  0  0  0  0  0  0  0  0
   -2.4199    2.7892    0.2646 C   0  0  0  0  0  0  0  0  0  0  0  0
   -2.1940    1.7952    1.3129 N   0  0  0  0  0  0  0  0  0  0  0  0
   -0.9671    1.8890    2.0015 C   0  0  0  0  0  0  0  0  0  0  0  0
   -0.1588    0.8262    2.1334 C   0  0  0  0  0  0  0  0  0  0  0  0
   -0.5567   -0.4548    1.7403 N   0  0  0  0  0  0  0  0  0  0  0  0
   -0.6333    5.4947   -0.9617 C   0  0  0  0  0  0  0  0  0  0  0  0
    0.1744    4.9228   -1.8838 C   0  0  0  0  0  0  0  0  0  0  0  0
   -0.0958    3.7498   -2.7350 C   0  0  0  0  0  0  0  0  0  0  0  0
   -1.2390    3.0319   -2.8818 C   0  0  0  0  0  0  0  0  0  0  0  0
   -0.9655   -2.0196    4.5519 C   0  0  0  0  0  0  0  0  0  0  0  0
    0.5074   -2.2655    4.2742 C   0  0  0  0  0  0  0  0  0  0  0  0
    1.5011   -1.3600    4.2496 C   0  0  0  0  0  0  0  0  0  0  0  0
    2.9042   -1.6539    3.7678 C   0  0  0  0  0  0  0  0  0  0  0  0
    3.0651   -1.9703    2.2577 C   0  0  0  0  0  0  0  0  0  0  0  0
    2.7823   -0.7625    1.3254 C   0  0  0  0  0  0  0  0  0  0  0  0
    4.7294    2.2057   -0.2658 H   0  0  0  0  0  0  0  0  0  0  0  0
    4.8705    2.9195   -2.6328 H   0  0  0  0  0  0  0  0  0  0  0  0
    4.4333    1.2979   -4.4620 H   0  0  0  0  0  0  0  0  0  0  0  0
    3.7772   -1.0189   -3.9282 H   0  0  0  0  0  0  0  0  0  0  0  0
    0.9381   -1.6652   -1.4885 H   0  0  0  0  0  0  0  0  0  0  0  0
    1.3252    0.1047    0.0106 H   0  0  0  0  0  0  0  0  0  0  0  0
    0.6951   -3.3639    0.4158 H   0  0  0  0  0  0  0  0  0  0  0  0
   -1.0603   -4.6150    1.0478 H   0  0  0  0  0  0  0  0  0  0  0  0
   -2.2419   -4.3167    3.1221 H   0  0  0  0  0  0  0  0  0  0  0  0
   -3.8456   -1.8511    0.0201 H   0  0  0  0  0  0  0  0  0  0  0  0
   -4.4660   -3.0868   -2.4133 H   0  0  0  0  0  0  0  0  0  0  0  0
   -4.5754   -2.6304   -4.8560 H   0  0  0  0  0  0  0  0  0  0  0  0
   -4.0815   -0.3741   -5.7278 H   0  0  0  0  0  0  0  0  0  0  0  0
   -3.4566    1.4611   -4.2090 H   0  0  0  0  0  0  0  0  0  0  0  0
   -1.6117    4.4769    1.3826 H   0  0  0  0  0  0  0  0  0  0  0  0
   -0.6513    2.8702    2.3293 H   0  0  0  0  0  0  0  0  0  0  0  0
    0.8063    0.9179    2.6016 H   0  0  0  0  0  0  0  0  0  0  0  0
   -0.3368    6.3666   -0.3938 H   0  0  0  0  0  0  0  0  0  0  0  0
    1.1483    5.3818   -2.0502 H   0  0  0  0  0  0  0  0  0  0  0  0
    0.7531    3.4710   -3.3611 H   0  0  0  0  0  0  0  0  0  0  0  0
   -1.2874    2.2062   -3.5841 H   0  0  0  0  0  0  0  0  0  0  0  0
   -1.3111   -2.6845    5.3473 H   0  0  0  0  0  0  0  0  0  0  0  0
   -1.1472   -0.9853    4.8706 H   0  0  0  0  0  0  0  0  0  0  0  0
    0.7557   -3.2840    3.9858 H   0  0  0  0  0  0  0  0  0  0  0  0
    1.2962   -0.3389    4.5540 H   0  0  0  0  0  0  0  0  0  0  0  0
    3.5422   -0.7967    4.0143 H   0  0  0  0  0  0  0  0  0  0  0  0
    3.3033   -2.4977    4.3412 H   0  0  0  0  0  0  0  0  0  0  0  0
    2.4469   -2.8330    1.9991 H   0  0  0  0  0  0  0  0  0  0  0  0
    4.0957   -2.3106    2.1099 H   0  0  0  0  0  0  0  0  0  0  0  0
    2.5556    0.0842    1.9852 H   0  0  0  0  0  0  0  0  0  0  0  0
  2  1  2  0  0  0  0
  3  2  1  0  0  0  0
  4  3  2  0  0  0  0
  5  4  1  0  0  0  0
  6  5  2  0  0  0  0
  7  6  1  0  0  0  0
  8  7  2  0  0  0  0
  8  3  1  0  0  0  0
  9  8  1  0  0  0  0
 10  9  2  0  0  0  0
 11  9  2  0  0  0  0
 12  9  1  0  0  0  0
 13 12  1  0  0  0  0
 14 13  1  0  0  0  0
 15 14  2  0  0  0  0
 16 15  1  0  0  0  0
 17 16  2  0  0  0  0
 18 17  1  0  0  0  0
 19 18  1  0  0  0  0
 20 19  2  0  0  0  0
 21 19  1  0  0  0  0
 22 21  2  0  0  0  0
 23 22  1  0  0  0  0
 24 23  1  0  0  0  0
 25 24  1  0  0  0  0
 26 25  1  0  0  0  0
 27 26  2  0  0  0  0
 28 27  1  0  0  0  0
 29 28  2  0  0  0  0
 30 29  1  0  0  0  0
 30 25  2  0  0  0  0
 31 30  1  0  0  0  0
 31 23  2  0  0  0  0
 32 31  1  0  0  0  0
 33 32  2  0  0  0  0
 34 33  1  0  0  0  0
 35 34  2  0  0  0  0
 36 35  1  0  0  0  0
 37 36  2  0  0  0  0
 37 32  1  0  0  0  0
 38 37  1  0  0  0  0
 38 22  1  0  0  0  0
 39 38  1  0  0  0  0
 40 39  2  0  0  0  0
 41 40  1  0  0  0  0
 41 14  1  0  0  0  0
 41 21  1  0  0  0  0
 42 35  1  0  0  0  0
 43 42  2  0  0  0  0
 44 43  1  0  0  0  0
 45 44  2  0  0  0  0
 45 33  1  0  0  0  0
 46 18  1  0  0  0  0
 47 46  1  0  0  0  0
 48 47  2  0  0  0  0
 49 48  1  0  0  0  0
 50 49  1  0  0  0  0
 51 50  1  0  0  0  0
 51  2  1  0  0  0  0
 51 13  1  0  0  0  0
  4 52  1  0  0  0  0
  5 53  1  0  0  0  0
  6 54  1  0  0  0  0
  7 55  1  0  0  0  0
 12 56  1  0  0  0  0
 13 57  1  0  0  0  0
 15 58  1  0  0  0  0
 16 59  1  0  0  0  0
 17 60  1  0  0  0  0
 24 61  1  0  0  0  0
 26 62  1  0  0  0  0
 27 63  1  0  0  0  0
 28 64  1  0  0  0  0
 29 65  1  0  0  0  0
 36 66  1  0  0  0  0
 39 67  1  0  0  0  0
 40 68  1  0  0  0  0
 42 69  1  0  0  0  0
 43 70  1  0  0  0  0
 44 71  1  0  0  0  0
 45 72  1  0  0  0  0
 46 73  1  0  0  0  0
 46 74  1  0  0  0  0
 47 75  1  0  0  0  0
 48 76  1  0  0  0  0
 49 77  1  0  0  0  0
 49 78  1  0  0  0  0
 50 79  1  0  0  0  0
 50 80  1  0  0  0  0
 51 81  1  0  0  0  0
M  END
>  <energy>
287.56457811520841

$$$$
