CCOC(=O)NCC12OC3=C(Cl)C=C(Cl)C=C1C1CCC4(C)OC1(C)C4(C3)C2=O
                    3D

 52 56  0  0  0  0  0  0  0  0999 V2000
   -6.4277   -1.5574   -0.3607 C   0  0  0  0  0  0  0  0  0  0  0  0
   -4.9752   -1.9470   -0.5579 C   0  0  0  0  0  0  0  0  0  0  0  0
   -4.1860   -0.7684   -0.7688 O   0  0  0  0  0  0  0  0  0  0  0  0
   -3.5439   -0.2833    0.3214 C   0  0  0  0  0  0  0  0  0  0  0  0
   -3.6403   -0.7209    1.4587 O   0  0  0  0  0  0  0  0  0  0  0  0
   -2.7404    0.7520   -0.0547 N   0  0  0  0  0  0  0  0  0  0  0  0
   -1.6542    1.2255    0.7862 C   0  0  0  0  0  0  0  0  0  0  0  0
   -0.2241    1.0448    0.2216 C   0  0  0  0  0  0  0  0  0  0  0  0
    0.0327    2.0663   -0.7852 O   0  0  0  0  0  0  0  0  0  0  0  0
    1.3768    2.1230   -1.2137 C   0  0  0  0  0  0  0  0  0  0  0  0
    2.0693    3.1989   -0.8030 C   0  0  0  0  0  0  0  0  0  0  0  0
    3.6626    3.5737   -1.3366 Cl  0  0  0  0  0  0  0  0  0  0  0  0
    1.5368    4.0235    0.2876 C   0  0  0  0  0  0  0  0  0  0  0  0
    1.1612    3.5387    1.4958 C   0  0  0  0  0  0  0  0  0  0  0  0
    0.6697    4.6479    2.7314 Cl  0  0  0  0  0  0  0  0  0  0  0  0
    1.3212    2.1498    1.9378 C   0  0  0  0  0  0  0  0  0  0  0  0
    0.8329    1.0290    1.3515 C   0  0  0  0  0  0  0  0  0  0  0  0
    1.6410   -0.2984    1.5307 C   0  0  0  0  0  0  0  0  0  0  0  0
    0.8611   -1.6453    1.5715 C   0  0  0  0  0  0  0  0  0  0  0  0
    0.9544   -2.5320    0.2880 C   0  0  0  0  0  0  0  0  0  0  0  0
    1.8497   -1.8654   -0.7852 C   0  0  0  0  0  0  0  0  0  0  0  0
    2.0669   -2.6976   -2.0235 C   0  0  0  0  0  0  0  0  0  0  0  0
    3.0866   -1.5903   -0.1048 O   0  0  0  0  0  0  0  0  0  0  0  0
    2.5673   -0.2837    0.2848 C   0  0  0  0  0  0  0  0  0  0  0  0
    3.8168    0.5737    0.4656 C   0  0  0  0  0  0  0  0  0  0  0  0
    1.5672   -0.3089   -0.9662 C   0  0  0  0  0  0  0  0  0  0  0  0
    1.9008    0.8506   -1.9326 C   0  0  0  0  0  0  0  0  0  0  0  0
    0.0108   -0.1202   -0.7105 C   0  0  0  0  0  0  0  0  0  0  0  0
   -0.8705   -0.7493   -1.2961 O   0  0  0  0  0  0  0  0  0  0  0  0
   -6.7940   -1.0050   -1.2323 H   0  0  0  0  0  0  0  0  0  0  0  0
   -6.5458   -0.8997    0.5062 H   0  0  0  0  0  0  0  0  0  0  0  0
   -7.0525   -2.4442   -0.2190 H   0  0  0  0  0  0  0  0  0  0  0  0
   -4.6088   -2.5484    0.2823 H   0  0  0  0  0  0  0  0  0  0  0  0
   -4.8812   -2.5689   -1.4555 H   0  0  0  0  0  0  0  0  0  0  0  0
   -2.6756    0.8747   -1.0580 H   0  0  0  0  0  0  0  0  0  0  0  0
   -1.7326    0.7345    1.7627 H   0  0  0  0  0  0  0  0  0  0  0  0
   -1.8467    2.2943    0.9365 H   0  0  0  0  0  0  0  0  0  0  0  0
    1.4844    5.0923    0.0848 H   0  0  0  0  0  0  0  0  0  0  0  0
    2.0850    2.0514    2.7140 H   0  0  0  0  0  0  0  0  0  0  0  0
    2.2451   -0.2452    2.4464 H   0  0  0  0  0  0  0  0  0  0  0  0
    1.2763   -2.2445    2.3946 H   0  0  0  0  0  0  0  0  0  0  0  0
   -0.1890   -1.4908    1.8455 H   0  0  0  0  0  0  0  0  0  0  0  0
   -0.0488   -2.7509   -0.0973 H   0  0  0  0  0  0  0  0  0  0  0  0
    1.3784   -3.5059    0.5665 H   0  0  0  0  0  0  0  0  0  0  0  0
    2.8012   -2.2342   -2.6906 H   0  0  0  0  0  0  0  0  0  0  0  0
    1.1317   -2.8174   -2.5819 H   0  0  0  0  0  0  0  0  0  0  0  0
    2.4351   -3.6981   -1.7693 H   0  0  0  0  0  0  0  0  0  0  0  0
    4.4301    0.1765    1.2821 H   0  0  0  0  0  0  0  0  0  0  0  0
    3.6012    1.6060    0.7247 H   0  0  0  0  0  0  0  0  0  0  0  0
    4.4450    0.5719   -0.4317 H   0  0  0  0  0  0  0  0  0  0  0  0
    1.3700    0.7304   -2.8846 H   0  0  0  0  0  0  0  0  0  0  0  0
    2.9680    0.8916   -2.1594 H   0  0  0  0  0  0  0  0  0  0  0  0
  2  1  1  0  0  0  0
  3  2  1  0  0  0  0
  4  3  1  0  0  0  0
  5  4  2  0  0  0  0
  6  4  1  0  0  0  0
  7  6  1  0  0  0  0
  8  7  1  0  0  0  0
  9  8  1  0  0  0  0
 10  9  1  0  0  0  0
 11 10  2  0  0  0  0
 12 11  1  0  0  0  0
 13 11  1  0  0  0  0
 14 13  2  0  0  0  0
 15 14  1  0  0  0  0
 16 14  1  0  0  0  0
 17 16  2  0  0  0  0
 17  8  1  0  0  0  0
 18 17  1  0  0  0  0
 19 18  1  0  0  0  0
 20 19  1  0  0  0  0
 21 20  1  0  0  0  0
 22 21  1  0  0  0  0
 23 21  1  0  0  0  0
 24 23  1  0  0  0  0
 24 18  1  0  0  0  0
 25 24  1  0  0  0  0
 26 24  1  0  0  0  0
 26 21  1  0  0  0  0
 27 26  1  0  0  0  0
 27 10  1  0  0  0  0
 28 26  1  0  0  0  0
 28  8  1  0  0  0  0
 29 28  2  0  0  0  0
  1 30  1  0  0  0  0
  1 31  1  0  0  0  0
  1 32  1  0  0  0  0
  2 33  1  0  0  0  0
  2 34  1  0  0  0  0
  6 35  1  0  0  0  0
  7 36  1  0  0  0  0
  7 37  1  0  0  0  0
 13 38  1  0  0  0  0
 16 39  1  0  0  0  0
 18 40  1  0  0  0  0
 19 41  1  0  0  0  0
 19 42  1  0  0  0  0
 20 43  1  0  0  0  0
 20 44  1  0  0  0  0
 22 45  1  0  0  0  0
 22 46  1  0  0  0  0
 22 47  1  0  0  0  0
 25 48  1  0  0  0  0
 25 49  1  0  0  0  0
 25 50  1  0  0  0  0
 27 51  1  0  0  0  0
 27 52  1  0  0  0  0
M  END
>  <energy>
89.573270890408324

$$$$
