CCOC(=O)C(C)OC1C(OC2(C)OC(C)CC2O)C(O)C2(OC(O)C(C)NC=O)OC34CCC(O3)(OC42C)C1(C)O
                    3D

 85 89  0  0  0  0  0  0  0  0999 V2000
    1.0191   -1.4420   -3.5622 C   0  0  0  0  0  0  0  0  0  0  0  0
    1.8956   -0.2127   -3.6655 C   0  0  0  0  0  0  0  0  0  0  0  0
    1.6352    0.6269   -2.5315 O   0  0  0  0  0  0  0  0  0  0  0  0
    2.4307    1.7240   -2.4653 C   0  0  0  0  0  0  0  0  0  0  0  0
    3.3505    1.9553   -3.2449 O   0  0  0  0  0  0  0  0  0  0  0  0
    2.0530    2.6658   -1.3037 C   0  0  0  0  0  0  0  0  0  0  0  0
    1.8615    4.0576   -1.9109 C   0  0  0  0  0  0  0  0  0  0  0  0
    0.9019    2.4462   -0.4969 O   0  0  0  0  0  0  0  0  0  0  0  0
    0.9906    1.4155    0.5330 C   0  0  0  0  0  0  0  0  0  0  0  0
   -0.5336    0.7926    0.6877 C   0  0  0  0  0  0  0  0  0  0  0  0
   -0.8876    0.3271   -0.6431 O   0  0  0  0  0  0  0  0  0  0  0  0
   -2.1007    0.8068   -1.2594 C   0  0  0  0  0  0  0  0  0  0  0  0
   -3.1456    1.5451   -0.3965 C   0  0  0  0  0  0  0  0  0  0  0  0
   -2.7851   -0.3520   -1.8023 O   0  0  0  0  0  0  0  0  0  0  0  0
   -3.0746   -0.1365   -3.1891 C   0  0  0  0  0  0  0  0  0  0  0  0
   -4.4994   -0.5818   -3.4691 C   0  0  0  0  0  0  0  0  0  0  0  0
   -2.8380    1.3299   -3.4793 C   0  0  0  0  0  0  0  0  0  0  0  0
   -1.7310    1.6599   -2.5069 C   0  0  0  0  0  0  0  0  0  0  0  0
   -1.6666    3.0655   -2.2845 O   0  0  0  0  0  0  0  0  0  0  0  0
   -1.1841   -0.2669    1.7847 C   0  0  0  0  0  0  0  0  0  0  0  0
   -2.2943   -0.9697    1.1711 O   0  0  0  0  0  0  0  0  0  0  0  0
   -0.4138   -1.3172    2.7314 C   0  0  0  0  0  0  0  0  0  0  0  0
   -0.9166   -2.6556    2.4418 O   0  0  0  0  0  0  0  0  0  0  0  0
   -0.1705   -3.5957    1.6881 C   0  0  0  0  0  0  0  0  0  0  0  0
   -0.9210   -4.8117    1.6723 O   0  0  0  0  0  0  0  0  0  0  0  0
    0.1715   -3.1957    0.2235 C   0  0  0  0  0  0  0  0  0  0  0  0
   -1.0046   -3.3867   -0.7301 C   0  0  0  0  0  0  0  0  0  0  0  0
    1.2937   -4.0075   -0.2650 N   0  0  0  0  0  0  0  0  0  0  0  0
    2.6048   -3.6830   -0.0985 C   0  0  0  0  0  0  0  0  0  0  0  0
    3.5172   -4.4826   -0.2529 O   0  0  0  0  0  0  0  0  0  0  0  0
   -0.7300   -0.9868    4.0919 O   0  0  0  0  0  0  0  0  0  0  0  0
    0.5499   -0.3153    4.5738 C   0  0  0  0  0  0  0  0  0  0  0  0
   -0.2866    0.9512    4.9269 C   0  0  0  0  0  0  0  0  0  0  0  0
   -0.0154    1.8098    3.6759 C   0  0  0  0  0  0  0  0  0  0  0  0
    1.2475    1.1854    2.9962 C   0  0  0  0  0  0  0  0  0  0  0  0
    1.6797    0.6793    4.2257 O   0  0  0  0  0  0  0  0  0  0  0  0
    1.4844   -0.0620    2.3173 O   0  0  0  0  0  0  0  0  0  0  0  0
    1.0104   -1.1023    3.1429 C   0  0  0  0  0  0  0  0  0  0  0  0
    2.0718   -2.1392    3.4149 C   0  0  0  0  0  0  0  0  0  0  0  0
    1.6949    2.0829    1.8572 C   0  0  0  0  0  0  0  0  0  0  0  0
    3.2269    2.1325    1.8058 C   0  0  0  0  0  0  0  0  0  0  0  0
    1.2432    3.4391    1.9898 O   0  0  0  0  0  0  0  0  0  0  0  0
   -0.0382   -1.1622   -3.5463 H   0  0  0  0  0  0  0  0  0  0  0  0
    1.1904   -2.1220   -4.4022 H   0  0  0  0  0  0  0  0  0  0  0  0
    1.2246   -1.9726   -2.6283 H   0  0  0  0  0  0  0  0  0  0  0  0
    1.6583    0.3335   -4.5852 H   0  0  0  0  0  0  0  0  0  0  0  0
    2.9479   -0.5159   -3.6812 H   0  0  0  0  0  0  0  0  0  0  0  0
    2.9362    2.6964   -0.6712 H   0  0  0  0  0  0  0  0  0  0  0  0
    2.7564    4.3971   -2.4417 H   0  0  0  0  0  0  0  0  0  0  0  0
    1.0297    4.0596   -2.6246 H   0  0  0  0  0  0  0  0  0  0  0  0
    1.6213    4.7911   -1.1356 H   0  0  0  0  0  0  0  0  0  0  0  0
    1.6199    0.6098    0.1306 H   0  0  0  0  0  0  0  0  0  0  0  0
   -1.1030    1.7104    0.8609 H   0  0  0  0  0  0  0  0  0  0  0  0
   -2.7834    2.5011   -0.0076 H   0  0  0  0  0  0  0  0  0  0  0  0
   -4.0551    1.7551   -0.9706 H   0  0  0  0  0  0  0  0  0  0  0  0
   -3.4762    0.9442    0.4513 H   0  0  0  0  0  0  0  0  0  0  0  0
   -2.3782   -0.7554   -3.7648 H   0  0  0  0  0  0  0  0  0  0  0  0
   -5.2081   -0.0439   -2.8293 H   0  0  0  0  0  0  0  0  0  0  0  0
   -4.6164   -1.6460   -3.2368 H   0  0  0  0  0  0  0  0  0  0  0  0
   -4.7711   -0.4157   -4.5160 H   0  0  0  0  0  0  0  0  0  0  0  0
   -3.7267    1.9376   -3.2751 H   0  0  0  0  0  0  0  0  0  0  0  0
   -2.5619    1.5180   -4.5218 H   0  0  0  0  0  0  0  0  0  0  0  0
   -0.7674    1.3422   -2.9150 H   0  0  0  0  0  0  0  0  0  0  0  0
   -1.4411    3.4840   -3.1329 H   0  0  0  0  0  0  0  0  0  0  0  0
   -1.7428    0.3700    2.4722 H   0  0  0  0  0  0  0  0  0  0  0  0
   -2.5227   -1.7217    1.7499 H   0  0  0  0  0  0  0  0  0  0  0  0
    0.7453   -3.8470    2.2181 H   0  0  0  0  0  0  0  0  0  0  0  0
   -0.8453   -5.1798    2.5672 H   0  0  0  0  0  0  0  0  0  0  0  0
    0.4970   -2.1478    0.2018 H   0  0  0  0  0  0  0  0  0  0  0  0
   -1.9039   -2.8780   -0.3833 H   0  0  0  0  0  0  0  0  0  0  0  0
   -0.7613   -2.9961   -1.7227 H   0  0  0  0  0  0  0  0  0  0  0  0
   -1.2458   -4.4478   -0.8614 H   0  0  0  0  0  0  0  0  0  0  0  0
    1.1176   -4.9960   -0.4332 H   0  0  0  0  0  0  0  0  0  0  0  0
    2.7699   -2.6286    0.1792 H   0  0  0  0  0  0  0  0  0  0  0  0
    0.1071    1.4286    5.8330 H   0  0  0  0  0  0  0  0  0  0  0  0
   -1.3609    0.8096    5.0971 H   0  0  0  0  0  0  0  0  0  0  0  0
    0.2289    2.8101    4.0658 H   0  0  0  0  0  0  0  0  0  0  0  0
   -0.8945    1.9679    3.0582 H   0  0  0  0  0  0  0  0  0  0  0  0
    2.4631   -2.5637    2.4888 H   0  0  0  0  0  0  0  0  0  0  0  0
    2.9299   -1.7117    3.9455 H   0  0  0  0  0  0  0  0  0  0  0  0
    1.6819   -2.9465    4.0408 H   0  0  0  0  0  0  0  0  0  0  0  0
    3.6345    2.2691    2.8148 H   0  0  0  0  0  0  0  0  0  0  0  0
    3.5955    2.9918    1.2402 H   0  0  0  0  0  0  0  0  0  0  0  0
    3.6632    1.2186    1.3914 H   0  0  0  0  0  0  0  0  0  0  0  0
    1.0505    3.7577    1.0859 H   0  0  0  0  0  0  0  0  0  0  0  0
  2  1  1  0  0  0  0
  3  2  1  0  0  0  0
  4  3  1  0  0  0  0
  5  4  2  0  0  0  0
  6  4  1  0  0  0  0
  7  6  1  0  0  0  0
  8  6  1  0  0  0  0
  9  8  1  0  0  0  0
 10  9  1  0  0  0  0
 11 10  1  0  0  0  0
 12 11  1  0  0  0  0
 13 12  1  0  0  0  0
 14 12  1  0  0  0  0
 15 14  1  0  0  0  0
 16 15  1  0  0  0  0
 17 15  1  0  0  0  0
 18 17  1  0  0  0  0
 18 12  1  0  0  0  0
 19 18  1  0  0  0  0
 20 10  1  0  0  0  0
 21 20  1  0  0  0  0
 22 20  1  0  0  0  0
 23 22  1  0  0  0  0
 24 23  1  0  0  0  0
 25 24  1  0  0  0  0
 26 24  1  0  0  0  0
 27 26  1  0  0  0  0
 28 26  1  0  0  0  0
 29 28  1  0  0  0  0
 30 29  2  0  0  0  0
 31 22  1  0  0  0  0
 32 31  1  0  0  0  0
 33 32  1  0  0  0  0
 34 33  1  0  0  0  0
 35 34  1  0  0  0  0
 36 35  1  0  0  0  0
 36 32  1  0  0  0  0
 37 35  1  0  0  0  0
 38 37  1  0  0  0  0
 38 32  1  0  0  0  0
 38 22  1  0  0  0  0
 39 38  1  0  0  0  0
 40 35  1  0  0  0  0
 40  9  1  0  0  0  0
 41 40  1  0  0  0  0
 42 40  1  0  0  0  0
  1 43  1  0  0  0  0
  1 44  1  0  0  0  0
  1 45  1  0  0  0  0
  2 46  1  0  0  0  0
  2 47  1  0  0  0  0
  6 48  1  0  0  0  0
  7 49  1  0  0  0  0
  7 50  1  0  0  0  0
  7 51  1  0  0  0  0
  9 52  1  0  0  0  0
 10 53  1  0  0  0  0
 13 54  1  0  0  0  0
 13 55  1  0  0  0  0
 13 56  1  0  0  0  0
 15 57  1  0  0  0  0
 16 58  1  0  0  0  0
 16 59  1  0  0  0  0
 16 60  1  0  0  0  0
 17 61  1  0  0  0  0
 17 62  1  0  0  0  0
 18 63  1  0  0  0  0
 19 64  1  0  0  0  0
 20 65  1  0  0  0  0
 21 66  1  0  0  0  0
 24 67  1  0  0  0  0
 25 68  1  0  0  0  0
 26 69  1  0  0  0  0
 27 70  1  0  0  0  0
 27 71  1  0  0  0  0
 27 72  1  0  0  0  0
 28 73  1  0  0  0  0
 29 74  1  0  0  0  0
 33 75  1  0  0  0  0
 33 76  1  0  0  0  0
 34 77  1  0  0  0  0
 34 78  1  0  0  0  0
 39 79  1  0  0  0  0
 39 80  1  0  0  0  0
 39 81  1  0  0  0  0
 41 82  1  0  0  0  0
 41 83  1  0  0  0  0
 41 84  1  0  0  0  0
 42 85  1  0  0  0  0
M  END
>  <energy>
449.85648002245404

$$$$
