N=c1c2ccc(Cl)cc1c(-n1c(=O)c3ccccc3n(CCOC(=O)C(=O)C(=O)C(O)NCC(=O)O)c1=O)c(O)[nH]
                    3D

 61 64  0  0  0  0  0  0  0  0999 V2000
    4.9135    1.4252   -3.3829 N   0  0  0  0  0  0  0  0  0  0  0  0
    3.8621    1.6467   -2.6760 C   0  0  0  0  0  0  0  0  0  0  0  0
    3.4323    2.9582   -2.0998 C   0  0  0  0  0  0  0  0  0  0  0  0
    2.7287    3.7083   -2.9745 C   0  0  0  0  0  0  0  0  0  0  0  0
    2.3445    3.1629   -4.2890 C   0  0  0  0  0  0  0  0  0  0  0  0
    1.9091    1.8829   -4.4289 C   0  0  0  0  0  0  0  0  0  0  0  0
    1.5196    1.2652   -5.9836 Cl  0  0  0  0  0  0  0  0  0  0  0  0
    1.7493    0.9338   -3.2969 C   0  0  0  0  0  0  0  0  0  0  0  0
    2.7214    0.7325   -2.3596 C   0  0  0  0  0  0  0  0  0  0  0  0
    2.4067    0.6011   -0.9034 C   0  0  0  0  0  0  0  0  0  0  0  0
    1.8952   -0.6060   -0.3541 N   0  0  0  0  0  0  0  0  0  0  0  0
    2.0732   -1.8260   -1.0053 C   0  0  0  0  0  0  0  0  0  0  0  0
    2.3706   -1.9805   -2.1936 O   0  0  0  0  0  0  0  0  0  0  0  0
    1.9094   -3.0459   -0.1792 C   0  0  0  0  0  0  0  0  0  0  0  0
    2.2719   -4.2944   -0.7096 C   0  0  0  0  0  0  0  0  0  0  0  0
    2.2166   -5.4391    0.0789 C   0  0  0  0  0  0  0  0  0  0  0  0
    1.8136   -5.3318    1.4048 C   0  0  0  0  0  0  0  0  0  0  0  0
    1.4353   -4.0950    1.9269 C   0  0  0  0  0  0  0  0  0  0  0  0
    1.4532   -2.9381    1.1358 C   0  0  0  0  0  0  0  0  0  0  0  0
    0.9879   -1.6775    1.5825 N   0  0  0  0  0  0  0  0  0  0  0  0
    0.4271   -1.4613    2.9238 C   0  0  0  0  0  0  0  0  0  0  0  0
   -1.0987   -1.2218    2.9767 C   0  0  0  0  0  0  0  0  0  0  0  0
   -1.3873   -0.4656    4.1837 O   0  0  0  0  0  0  0  0  0  0  0  0
   -2.2678    0.5506    4.2417 C   0  0  0  0  0  0  0  0  0  0  0  0
   -2.3555    1.3084    5.1978 O   0  0  0  0  0  0  0  0  0  0  0  0
   -3.2589    0.6891    3.1037 C   0  0  0  0  0  0  0  0  0  0  0  0
   -4.0936   -0.1909    2.9189 O   0  0  0  0  0  0  0  0  0  0  0  0
   -3.2273    1.8899    2.1977 C   0  0  0  0  0  0  0  0  0  0  0  0
   -2.2106    2.5815    2.1717 O   0  0  0  0  0  0  0  0  0  0  0  0
   -4.4817    2.1257    1.3474 C   0  0  0  0  0  0  0  0  0  0  0  0
   -4.7971    3.4989    1.3491 O   0  0  0  0  0  0  0  0  0  0  0  0
   -4.2317    1.7707   -0.0408 N   0  0  0  0  0  0  0  0  0  0  0  0
   -4.3278    0.3169   -0.2690 C   0  0  0  0  0  0  0  0  0  0  0  0
   -4.4518    0.0130   -1.7643 C   0  0  0  0  0  0  0  0  0  0  0  0
   -4.7667    0.8313   -2.6171 O   0  0  0  0  0  0  0  0  0  0  0  0
   -4.2257   -1.2860   -2.0672 O   0  0  0  0  0  0  0  0  0  0  0  0
    1.0908   -0.5466    0.7794 C   0  0  0  0  0  0  0  0  0  0  0  0
    0.4498    0.4688    1.0867 O   0  0  0  0  0  0  0  0  0  0  0  0
    2.7040    1.7371   -0.1725 C   0  0  0  0  0  0  0  0  0  0  0  0
    2.4639    1.8956    1.1682 O   0  0  0  0  0  0  0  0  0  0  0  0
    3.2646    2.8974   -0.7319 N   0  0  0  0  0  0  0  0  0  0  0  0
    5.4225    2.3105   -3.4913 H   0  0  0  0  0  0  0  0  0  0  0  0
    2.1533    4.5640   -2.6369 H   0  0  0  0  0  0  0  0  0  0  0  0
    2.4163    3.8358   -5.1439 H   0  0  0  0  0  0  0  0  0  0  0  0
    0.7151    0.6398   -3.1291 H   0  0  0  0  0  0  0  0  0  0  0  0
    2.6167   -4.3691   -1.7389 H   0  0  0  0  0  0  0  0  0  0  0  0
    2.4922   -6.4014   -0.3405 H   0  0  0  0  0  0  0  0  0  0  0  0
    1.7988   -6.2154    2.0354 H   0  0  0  0  0  0  0  0  0  0  0  0
    1.1367   -4.0834    2.9676 H   0  0  0  0  0  0  0  0  0  0  0  0
    0.9334   -0.5790    3.3379 H   0  0  0  0  0  0  0  0  0  0  0  0
    0.6969   -2.2574    3.6204 H   0  0  0  0  0  0  0  0  0  0  0  0
   -1.6306   -2.1770    3.0464 H   0  0  0  0  0  0  0  0  0  0  0  0
   -1.4574   -0.6968    2.0866 H   0  0  0  0  0  0  0  0  0  0  0  0
   -5.3490    1.6056    1.7605 H   0  0  0  0  0  0  0  0  0  0  0  0
   -4.0364    3.9176    0.9040 H   0  0  0  0  0  0  0  0  0  0  0  0
   -4.9507    2.2198   -0.6187 H   0  0  0  0  0  0  0  0  0  0  0  0
   -3.4249   -0.1644    0.1187 H   0  0  0  0  0  0  0  0  0  0  0  0
   -5.2167   -0.0999    0.2193 H   0  0  0  0  0  0  0  0  0  0  0  0
   -4.0034   -1.8662   -1.3164 H   0  0  0  0  0  0  0  0  0  0  0  0
    1.5407    1.5989    1.3246 H   0  0  0  0  0  0  0  0  0  0  0  0
    2.9145    3.7327   -0.2818 H   0  0  0  0  0  0  0  0  0  0  0  0
  2  1  2  0  0  0  0
  3  2  1  0  0  0  0
  4  3  2  0  0  0  0
  5  4  1  0  0  0  0
  6  5  2  0  0  0  0
  7  6  1  0  0  0  0
  8  6  1  0  0  0  0
  9  8  2  0  0  0  0
  9  2  1  0  0  0  0
 10  9  1  0  0  0  0
 11 10  1  0  0  0  0
 12 11  1  0  0  0  0
 13 12  2  0  0  0  0
 14 12  1  0  0  0  0
 15 14  2  0  0  0  0
 16 15  1  0  0  0  0
 17 16  2  0  0  0  0
 18 17  1  0  0  0  0
 19 18  2  0  0  0  0
 19 14  1  0  0  0  0
 20 19  1  0  0  0  0
 21 20  1  0  0  0  0
 22 21  1  0  0  0  0
 23 22  1  0  0  0  0
 24 23  1  0  0  0  0
 25 24  2  0  0  0  0
 26 24  1  0  0  0  0
 27 26  2  0  0  0  0
 28 26  1  0  0  0  0
 29 28  2  0  0  0  0
 30 28  1  0  0  0  0
 31 30  1  0  0  0  0
 32 30  1  0  0  0  0
 33 32  1  0  0  0  0
 34 33  1  0  0  0  0
 35 34  2  0  0  0  0
 36 34  1  0  0  0  0
 37 20  1  0  0  0  0
 37 11  1  0  0  0  0
 38 37  2  0  0  0  0
 39 10  2  0  0  0  0
 40 39  1  0  0  0  0
 41 39  1  0  0  0  0
 41  3  1  0  0  0  0
  1 42  1  0  0  0  0
  4 43  1  0  0  0  0
  5 44  1  0  0  0  0
  8 45  1  0  0  0  0
 15 46  1  0  0  0  0
 16 47  1  0  0  0  0
 17 48  1  0  0  0  0
 18 49  1  0  0  0  0
 21 50  1  0  0  0  0
 21 51  1  0  0  0  0
 22 52  1  0  0  0  0
 22 53  1  0  0  0  0
 30 54  1  0  0  0  0
 31 55  1  0  0  0  0
 32 56  1  0  0  0  0
 33 57  1  0  0  0  0
 33 58  1  0  0  0  0
 36 59  1  0  0  0  0
 40 60  1  0  0  0  0
 41 61  1  0  0  0  0
M  END
>  <energy>
185.82569958528742

$$$$
