Cc1noc(=S)n1CCCn1c(O)c2c3c1CC(CC2)C3
                    3D

 40 43  0  0  0  0  0  0  0  0999 V2000
   -2.2452    1.0728   -1.7182 C   0  0  0  0  0  0  0  0  0  0  0  0
   -2.1986    1.3881   -0.2559 C   0  0  0  0  0  0  0  0  0  0  0  0
   -1.9954    2.5934    0.1599 N   0  0  0  0  0  0  0  0  0  0  0  0
   -2.0983    2.5290    1.5764 O   0  0  0  0  0  0  0  0  0  0  0  0
   -2.4086    1.2329    1.8535 C   0  0  0  0  0  0  0  0  0  0  0  0
   -2.7779    0.8232    3.4181 S   0  0  0  0  0  0  0  0  0  0  0  0
   -2.3865    0.4956    0.7185 N   0  0  0  0  0  0  0  0  0  0  0  0
   -2.7075   -0.9198    0.6298 C   0  0  0  0  0  0  0  0  0  0  0  0
   -1.6398   -1.8272    1.2517 C   0  0  0  0  0  0  0  0  0  0  0  0
   -0.6615   -2.4547    0.2559 C   0  0  0  0  0  0  0  0  0  0  0  0
    0.4380   -1.6497   -0.2214 N   0  0  0  0  0  0  0  0  0  0  0  0
    0.6962   -1.2682   -1.5349 C   0  0  0  0  0  0  0  0  0  0  0  0
   -0.1796   -1.4307   -2.5203 O   0  0  0  0  0  0  0  0  0  0  0  0
    1.8248   -0.4781   -1.4469 C   0  0  0  0  0  0  0  0  0  0  0  0
    2.5531   -0.9399   -0.3140 C   0  0  0  0  0  0  0  0  0  0  0  0
    1.4716   -1.1540    0.5351 C   0  0  0  0  0  0  0  0  0  0  0  0
    1.4573   -0.0674    1.5907 C   0  0  0  0  0  0  0  0  0  0  0  0
    2.5103    0.9574    0.9246 C   0  0  0  0  0  0  0  0  0  0  0  0
    1.8536    1.7534   -0.2939 C   0  0  0  0  0  0  0  0  0  0  0  0
    1.9185    1.0092   -1.7000 C   0  0  0  0  0  0  0  0  0  0  0  0
    3.5655   -0.0285    0.3295 C   0  0  0  0  0  0  0  0  0  0  0  0
   -1.2502    1.1881   -2.1498 H   0  0  0  0  0  0  0  0  0  0  0  0
   -2.6100    0.0728   -1.9427 H   0  0  0  0  0  0  0  0  0  0  0  0
   -2.9079    1.7911   -2.2123 H   0  0  0  0  0  0  0  0  0  0  0  0
   -3.6485   -1.0472    1.1834 H   0  0  0  0  0  0  0  0  0  0  0  0
   -2.9213   -1.2191   -0.3968 H   0  0  0  0  0  0  0  0  0  0  0  0
   -1.0973   -1.3436    2.0676 H   0  0  0  0  0  0  0  0  0  0  0  0
   -2.1881   -2.6565    1.7141 H   0  0  0  0  0  0  0  0  0  0  0  0
   -1.2004   -2.8559   -0.6092 H   0  0  0  0  0  0  0  0  0  0  0  0
   -0.1926   -3.3106    0.7556 H   0  0  0  0  0  0  0  0  0  0  0  0
    0.2530   -1.0480   -3.3076 H   0  0  0  0  0  0  0  0  0  0  0  0
    1.8537   -0.4608    2.5315 H   0  0  0  0  0  0  0  0  0  0  0  0
    0.4904    0.4121    1.7658 H   0  0  0  0  0  0  0  0  0  0  0  0
    2.9229    1.6496    1.6664 H   0  0  0  0  0  0  0  0  0  0  0  0
    2.3476    2.7249   -0.3986 H   0  0  0  0  0  0  0  0  0  0  0  0
    0.8044    1.9690   -0.0502 H   0  0  0  0  0  0  0  0  0  0  0  0
    1.1056    1.3615   -2.3382 H   0  0  0  0  0  0  0  0  0  0  0  0
    2.8648    1.2416   -2.2028 H   0  0  0  0  0  0  0  0  0  0  0  0
    4.2276    0.4424   -0.4017 H   0  0  0  0  0  0  0  0  0  0  0  0
    4.1565   -0.5482    1.0872 H   0  0  0  0  0  0  0  0  0  0  0  0
  2  1  1  0  0  0  0
  3  2  2  0  0  0  0
  4  3  1  0  0  0  0
  5  4  1  0  0  0  0
  6  5  2  0  0  0  0
  7  5  1  0  0  0  0
  7  2  1  0  0  0  0
  8  7  1  0  0  0  0
  9  8  1  0  0  0  0
 10  9  1  0  0  0  0
 11 10  1  0  0  0  0
 12 11  1  0  0  0  0
 13 12  1  0  0  0  0
 14 12  2  0  0  0  0
 15 14  1  0  0  0  0
 16 15  2  0  0  0  0
 16 11  1  0  0  0  0
 17 16  1  0  0  0  0
 18 17  1  0  0  0  0
 19 18  1  0  0  0  0
 20 19  1  0  0  0  0
 20 14  1  0  0  0  0
 21 18  1  0  0  0  0
 21 15  1  0  0  0  0
  1 22  1  0  0  0  0
  1 23  1  0  0  0  0
  1 24  1  0  0  0  0
  8 25  1  0  0  0  0
  8 26  1  0  0  0  0
  9 27  1  0  0  0  0
  9 28  1  0  0  0  0
 10 29  1  0  0  0  0
 10 30  1  0  0  0  0
 13 31  1  0  0  0  0
 17 32  1  0  0  0  0
 17 33  1  0  0  0  0
 18 34  1  0  0  0  0
 19 35  1  0  0  0  0
 19 36  1  0  0  0  0
 20 37  1  0  0  0  0
 20 38  1  0  0  0  0
 21 39  1  0  0  0  0
 21 40  1  0  0  0  0
M  END
>  <energy>
100.40105699099482

$$$$
