CNC(=O)C1(Cl)C2OC1C2(Cl)Cl
                    3D

 18 19  0  0  0  0  0  0  0  0999 V2000
   -3.1243    0.4279    0.2420 C   0  0  0  0  0  0  0  0  0  0  0  0
   -1.7464    0.0643    0.4623 N   0  0  0  0  0  0  0  0  0  0  0  0
   -0.8756   -0.1074   -0.6087 C   0  0  0  0  0  0  0  0  0  0  0  0
   -1.2421    0.1007   -1.7689 O   0  0  0  0  0  0  0  0  0  0  0  0
    0.5686   -0.6404   -0.2034 C   0  0  0  0  0  0  0  0  0  0  0  0
    0.4359   -2.4113    0.0800 Cl  0  0  0  0  0  0  0  0  0  0  0  0
    1.7450   -0.0344   -1.0704 C   0  0  0  0  0  0  0  0  0  0  0  0
    1.3355    1.3157   -0.3607 O   0  0  0  0  0  0  0  0  0  0  0  0
    1.3927    0.2666    0.7912 C   0  0  0  0  0  0  0  0  0  0  0  0
    2.7592   -0.1691    0.1302 C   0  0  0  0  0  0  0  0  0  0  0  0
    3.4912   -1.7655    0.5333 Cl  0  0  0  0  0  0  0  0  0  0  0  0
    4.1165    1.0642    0.1950 Cl  0  0  0  0  0  0  0  0  0  0  0  0
   -3.1929    1.2148   -0.5137 H   0  0  0  0  0  0  0  0  0  0  0  0
   -3.5463    0.7808    1.1859 H   0  0  0  0  0  0  0  0  0  0  0  0
   -3.6695   -0.4557   -0.1006 H   0  0  0  0  0  0  0  0  0  0  0  0
   -1.4981   -0.3173    1.3657 H   0  0  0  0  0  0  0  0  0  0  0  0
    1.8935    0.0306   -2.1393 H   0  0  0  0  0  0  0  0  0  0  0  0
    1.1571    0.6353    1.7799 H   0  0  0  0  0  0  0  0  0  0  0  0
  2  1  1  0  0  0  0
  3  2  1  0  0  0  0
  4  3  2  0  0  0  0
  5  3  1  0  0  0  0
  6  5  1  0  0  0  0
  7  5  1  0  0  0  0
  8  7  1  0  0  0  0
  9  8  1  0  0  0  0
  9  5  1  0  0  0  0
 10  9  1  0  0  0  0
 10  7  1  0  0  0  0
 11 10  1  0  0  0  0
 12 10  1  0  0  0  0
  1 13  1  0  0  0  0
  1 14  1  0  0  0  0
  1 15  1  0  0  0  0
  2 16  1  0  0  0  0
  7 17  1  0  0  0  0
  9 18  1  0  0  0  0
M  END
>  <energy>
56.804767996561218

$$$$
