OCC1C2CCN3C4CC3C2C14
                    3D

 27 30  0  0  0  0  0  0  0  0999 V2000
    3.3151    1.2654    0.0787 O   0  0  0  0  0  0  0  0  0  0  0  0
    2.5716    0.4291   -0.7994 C   0  0  0  0  0  0  0  0  0  0  0  0
    1.3010   -0.0372   -0.0962 C   0  0  0  0  0  0  0  0  0  0  0  0
    0.2922   -0.7758   -1.0269 C   0  0  0  0  0  0  0  0  0  0  0  0
   -0.3678   -1.9945   -0.4164 C   0  0  0  0  0  0  0  0  0  0  0  0
   -0.9243   -1.6428    0.9573 C   0  0  0  0  0  0  0  0  0  0  0  0
   -1.6290   -0.3755    1.0569 N   0  0  0  0  0  0  0  0  0  0  0  0
   -0.7815    0.8670    1.2775 C   0  0  0  0  0  0  0  0  0  0  0  0
   -2.0575    1.5844    0.6619 C   0  0  0  0  0  0  0  0  0  0  0  0
   -1.9564    0.2990   -0.2521 C   0  0  0  0  0  0  0  0  0  0  0  0
   -0.6055    0.4795   -1.0220 C   0  0  0  0  0  0  0  0  0  0  0  0
    0.2449    1.0545    0.1194 C   0  0  0  0  0  0  0  0  0  0  0  0
    3.5831    0.7244    0.8414 H   0  0  0  0  0  0  0  0  0  0  0  0
    2.3473    1.0031   -1.7043 H   0  0  0  0  0  0  0  0  0  0  0  0
    3.1994   -0.4220   -1.0820 H   0  0  0  0  0  0  0  0  0  0  0  0
    1.5775   -0.5812    0.8148 H   0  0  0  0  0  0  0  0  0  0  0  0
    0.6936   -1.0083   -2.0214 H   0  0  0  0  0  0  0  0  0  0  0  0
   -1.1757   -2.3440   -1.0711 H   0  0  0  0  0  0  0  0  0  0  0  0
    0.3495   -2.8183   -0.3277 H   0  0  0  0  0  0  0  0  0  0  0  0
   -0.1364   -1.6862    1.7190 H   0  0  0  0  0  0  0  0  0  0  0  0
   -1.6266   -2.4372    1.2391 H   0  0  0  0  0  0  0  0  0  0  0  0
   -0.4915    1.1081    2.2998 H   0  0  0  0  0  0  0  0  0  0  0  0
   -2.9383    1.6419    1.3139 H   0  0  0  0  0  0  0  0  0  0  0  0
   -1.9094    2.5543    0.1780 H   0  0  0  0  0  0  0  0  0  0  0  0
   -2.8406   -0.0453   -0.7880 H   0  0  0  0  0  0  0  0  0  0  0  0
   -0.6261    1.0726   -1.9395 H   0  0  0  0  0  0  0  0  0  0  0  0
    0.5914    2.0849   -0.0104 H   0  0  0  0  0  0  0  0  0  0  0  0
  2  1  1  0  0  0  0
  3  2  1  0  0  0  0
  4  3  1  0  0  0  0
  5  4  1  0  0  0  0
  6  5  1  0  0  0  0
  7  6  1  0  0  0  0
  8  7  1  0  0  0  0
  9  8  1  0  0  0  0
 10  9  1  0  0  0  0
 10  7  1  0  0  0  0
 11 10  1  0  0  0  0
 11  4  1  0  0  0  0
 12 11  1  0  0  0  0
 12  3  1  0  0  0  0
 12  8  1  0  0  0  0
  1 13  1  0  0  0  0
  2 14  1  0  0  0  0
  2 15  1  0  0  0  0
  3 16  1  0  0  0  0
  4 17  1  0  0  0  0
  5 18  1  0  0  0  0
  5 19  1  0  0  0  0
  6 20  1  0  0  0  0
  6 21  1  0  0  0  0
  8 22  1  0  0  0  0
  9 23  1  0  0  0  0
  9 24  1  0  0  0  0
 10 25  1  0  0  0  0
 11 26  1  0  0  0  0
 12 27  1  0  0  0  0
M  END
>  <energy>
55.16845862079365

$$$$
