O=C1OCCC1NC(=O)C12CC3CC1CC1CC3C3CC1C3C2
                    3D

 48 53  0  0  0  0  0  0  0  0999 V2000
   -4.0630    1.1281    2.1676 O   0  0  0  0  0  0  0  0  0  0  0  0
   -4.2615    0.9818    0.9707 C   0  0  0  0  0  0  0  0  0  0  0  0
   -5.4917    0.8892    0.3873 O   0  0  0  0  0  0  0  0  0  0  0  0
   -5.3365    0.7222   -1.0228 C   0  0  0  0  0  0  0  0  0  0  0  0
   -3.9296    1.1563   -1.3502 C   0  0  0  0  0  0  0  0  0  0  0  0
   -3.1791    0.8476   -0.0789 C   0  0  0  0  0  0  0  0  0  0  0  0
   -2.0899    1.7562    0.2353 N   0  0  0  0  0  0  0  0  0  0  0  0
   -0.9900    1.7963   -0.5790 C   0  0  0  0  0  0  0  0  0  0  0  0
   -1.0392    2.4430   -1.6300 O   0  0  0  0  0  0  0  0  0  0  0  0
    0.1946    0.8481   -0.2563 C   0  0  0  0  0  0  0  0  0  0  0  0
    1.5072    1.5857   -0.6330 C   0  0  0  0  0  0  0  0  0  0  0  0
    2.5151    1.1431    0.4281 C   0  0  0  0  0  0  0  0  0  0  0  0
    1.6265    1.2554    1.6664 C   0  0  0  0  0  0  0  0  0  0  0  0
    0.3635    0.4895    1.2589 C   0  0  0  0  0  0  0  0  0  0  0  0
    0.3699   -1.0115    1.6430 C   0  0  0  0  0  0  0  0  0  0  0  0
    1.5467   -1.9055    1.2178 C   0  0  0  0  0  0  0  0  0  0  0  0
    2.9116   -1.2297    1.3808 C   0  0  0  0  0  0  0  0  0  0  0  0
    3.1442   -0.2611    0.2057 C   0  0  0  0  0  0  0  0  0  0  0  0
    2.6935   -0.9706   -1.1016 C   0  0  0  0  0  0  0  0  0  0  0  0
    2.7920   -2.5451   -0.9906 C   0  0  0  0  0  0  0  0  0  0  0  0
    1.4091   -2.3953   -0.2369 C   0  0  0  0  0  0  0  0  0  0  0  0
    1.1561   -1.2913   -1.3108 C   0  0  0  0  0  0  0  0  0  0  0  0
   -0.0170   -0.3439   -1.1896 C   0  0  0  0  0  0  0  0  0  0  0  0
   -5.5161   -0.3307   -1.2628 H   0  0  0  0  0  0  0  0  0  0  0  0
   -6.0761    1.3404   -1.5425 H   0  0  0  0  0  0  0  0  0  0  0  0
   -3.5250    0.6432   -2.2276 H   0  0  0  0  0  0  0  0  0  0  0  0
   -3.9130    2.2294   -1.5672 H   0  0  0  0  0  0  0  0  0  0  0  0
   -2.8220   -0.1886   -0.0577 H   0  0  0  0  0  0  0  0  0  0  0  0
   -1.9034    1.7515    1.2325 H   0  0  0  0  0  0  0  0  0  0  0  0
    1.8371    1.4075   -1.6608 H   0  0  0  0  0  0  0  0  0  0  0  0
    1.3739    2.6745   -0.5549 H   0  0  0  0  0  0  0  0  0  0  0  0
    3.3280    1.8760    0.4982 H   0  0  0  0  0  0  0  0  0  0  0  0
    1.3692    2.3133    1.8230 H   0  0  0  0  0  0  0  0  0  0  0  0
    2.0610    0.9274    2.6104 H   0  0  0  0  0  0  0  0  0  0  0  0
   -0.4320    0.9150    1.8734 H   0  0  0  0  0  0  0  0  0  0  0  0
   -0.5744   -1.4682    1.3205 H   0  0  0  0  0  0  0  0  0  0  0  0
    0.3443   -1.0425    2.7417 H   0  0  0  0  0  0  0  0  0  0  0  0
    1.5376   -2.7910    1.8676 H   0  0  0  0  0  0  0  0  0  0  0  0
    3.6926   -2.0013    1.3679 H   0  0  0  0  0  0  0  0  0  0  0  0
    3.0403   -0.7684    2.3620 H   0  0  0  0  0  0  0  0  0  0  0  0
    4.2310   -0.1097    0.1359 H   0  0  0  0  0  0  0  0  0  0  0  0
    3.1791   -0.5445   -1.9868 H   0  0  0  0  0  0  0  0  0  0  0  0
    3.6382   -2.9789   -0.4519 H   0  0  0  0  0  0  0  0  0  0  0  0
    2.7267   -3.0746   -1.9507 H   0  0  0  0  0  0  0  0  0  0  0  0
    0.7276   -3.2466   -0.3288 H   0  0  0  0  0  0  0  0  0  0  0  0
    0.9834   -1.7535   -2.3054 H   0  0  0  0  0  0  0  0  0  0  0  0
   -0.9150   -0.9118   -0.9200 H   0  0  0  0  0  0  0  0  0  0  0  0
   -0.2256    0.0438   -2.1980 H   0  0  0  0  0  0  0  0  0  0  0  0
  2  1  2  0  0  0  0
  3  2  1  0  0  0  0
  4  3  1  0  0  0  0
  5  4  1  0  0  0  0
  6  5  1  0  0  0  0
  6  2  1  0  0  0  0
  7  6  1  0  0  0  0
  8  7  1  0  0  0  0
  9  8  2  0  0  0  0
 10  8  1  0  0  0  0
 11 10  1  0  0  0  0
 12 11  1  0  0  0  0
 13 12  1  0  0  0  0
 14 13  1  0  0  0  0
 14 10  1  0  0  0  0
 15 14  1  0  0  0  0
 16 15  1  0  0  0  0
 17 16  1  0  0  0  0
 18 17  1  0  0  0  0
 18 12  1  0  0  0  0
 19 18  1  0  0  0  0
 20 19  1  0  0  0  0
 21 20  1  0  0  0  0
 21 16  1  0  0  0  0
 22 21  1  0  0  0  0
 22 19  1  0  0  0  0
 23 22  1  0  0  0  0
 23 10  1  0  0  0  0
  4 24  1  0  0  0  0
  4 25  1  0  0  0  0
  5 26  1  0  0  0  0
  5 27  1  0  0  0  0
  6 28  1  0  0  0  0
  7 29  1  0  0  0  0
 11 30  1  0  0  0  0
 11 31  1  0  0  0  0
 12 32  1  0  0  0  0
 13 33  1  0  0  0  0
 13 34  1  0  0  0  0
 14 35  1  0  0  0  0
 15 36  1  0  0  0  0
 15 37  1  0  0  0  0
 16 38  1  0  0  0  0
 17 39  1  0  0  0  0
 17 40  1  0  0  0  0
 18 41  1  0  0  0  0
 19 42  1  0  0  0  0
 20 43  1  0  0  0  0
 20 44  1  0  0  0  0
 21 45  1  0  0  0  0
 22 46  1  0  0  0  0
 23 47  1  0  0  0  0
 23 48  1  0  0  0  0
M  END
>  <energy>
104.81215900932064

$$$$
