C=C1C(=O)C(C(O)O)C2CC(O)C3C(C(C)C)CCC4C5OC3C5C142
                    3D

 53 57  0  0  0  0  0  0  0  0999 V2000
    3.9463    0.9691   -1.1227 C   0  0  0  0  0  0  0  0  0  0  0  0
    3.0640    0.2111   -0.4686 C   0  0  0  0  0  0  0  0  0  0  0  0
    3.3853   -1.1498    0.0052 C   0  0  0  0  0  0  0  0  0  0  0  0
    4.4127   -1.7381   -0.2987 O   0  0  0  0  0  0  0  0  0  0  0  0
    2.2802   -1.6735    0.8790 C   0  0  0  0  0  0  0  0  0  0  0  0
    1.9008   -3.1134    0.5371 C   0  0  0  0  0  0  0  0  0  0  0  0
    1.6700   -3.2965   -0.8398 O   0  0  0  0  0  0  0  0  0  0  0  0
    2.8892   -4.0334    0.9338 O   0  0  0  0  0  0  0  0  0  0  0  0
    1.0791   -0.6837    0.6509 C   0  0  0  0  0  0  0  0  0  0  0  0
    0.4373   -0.3697    2.0445 C   0  0  0  0  0  0  0  0  0  0  0  0
   -0.9818    0.2895    2.1858 C   0  0  0  0  0  0  0  0  0  0  0  0
   -1.0156    0.8374    3.5190 O   0  0  0  0  0  0  0  0  0  0  0  0
   -1.4285    1.4148    1.2046 C   0  0  0  0  0  0  0  0  0  0  0  0
   -2.2917    0.9958   -0.1557 C   0  0  0  0  0  0  0  0  0  0  0  0
   -2.5174   -0.5163   -0.5436 C   0  0  0  0  0  0  0  0  0  0  0  0
   -3.2326   -1.3423    0.5358 C   0  0  0  0  0  0  0  0  0  0  0  0
   -3.3542   -0.6739   -1.8347 C   0  0  0  0  0  0  0  0  0  0  0  0
   -1.8729    1.8486   -1.4230 C   0  0  0  0  0  0  0  0  0  0  0  0
   -0.5596    1.5569   -2.2404 C   0  0  0  0  0  0  0  0  0  0  0  0
    0.8509    1.2104   -1.5156 C   0  0  0  0  0  0  0  0  0  0  0  0
    1.0791    2.5967   -0.7241 C   0  0  0  0  0  0  0  0  0  0  0  0
   -0.0650    3.2325   -0.0359 O   0  0  0  0  0  0  0  0  0  0  0  0
   -0.0900    2.0627    0.8207 C   0  0  0  0  0  0  0  0  0  0  0  0
    1.4163    1.8815    0.5866 C   0  0  0  0  0  0  0  0  0  0  0  0
    1.6630    0.5712   -0.1421 C   0  0  0  0  0  0  0  0  0  0  0  0
    4.9505    0.6018   -1.3209 H   0  0  0  0  0  0  0  0  0  0  0  0
    3.7148    1.9636   -1.4826 H   0  0  0  0  0  0  0  0  0  0  0  0
    2.6490   -1.6158    1.9127 H   0  0  0  0  0  0  0  0  0  0  0  0
    0.9807   -3.3739    1.0750 H   0  0  0  0  0  0  0  0  0  0  0  0
    2.5473   -3.1818   -1.2580 H   0  0  0  0  0  0  0  0  0  0  0  0
    2.4923   -4.9098    0.8016 H   0  0  0  0  0  0  0  0  0  0  0  0
    0.3300   -1.1889    0.0399 H   0  0  0  0  0  0  0  0  0  0  0  0
    0.3554   -1.3250    2.5879 H   0  0  0  0  0  0  0  0  0  0  0  0
    1.1626    0.2075    2.6401 H   0  0  0  0  0  0  0  0  0  0  0  0
   -1.7244   -0.4937    2.2340 H   0  0  0  0  0  0  0  0  0  0  0  0
   -0.5070    1.6675    3.5330 H   0  0  0  0  0  0  0  0  0  0  0  0
   -2.0347    2.1633    1.7360 H   0  0  0  0  0  0  0  0  0  0  0  0
   -3.3015    1.3567    0.0942 H   0  0  0  0  0  0  0  0  0  0  0  0
   -1.5537   -0.9848   -0.7550 H   0  0  0  0  0  0  0  0  0  0  0  0
   -3.8037   -0.7097    1.2217 H   0  0  0  0  0  0  0  0  0  0  0  0
   -3.9319   -2.0749    0.1155 H   0  0  0  0  0  0  0  0  0  0  0  0
   -2.5118   -1.9361    1.1046 H   0  0  0  0  0  0  0  0  0  0  0  0
   -2.8474   -0.2790   -2.7182 H   0  0  0  0  0  0  0  0  0  0  0  0
   -3.5427   -1.7315   -2.0518 H   0  0  0  0  0  0  0  0  0  0  0  0
   -4.3218   -0.1721   -1.7384 H   0  0  0  0  0  0  0  0  0  0  0  0
   -2.7007    1.7965   -2.1464 H   0  0  0  0  0  0  0  0  0  0  0  0
   -1.9167    2.9081   -1.1466 H   0  0  0  0  0  0  0  0  0  0  0  0
   -0.3826    2.4349   -2.8794 H   0  0  0  0  0  0  0  0  0  0  0  0
   -0.7819    0.7502   -2.9546 H   0  0  0  0  0  0  0  0  0  0  0  0
    0.3905    0.2085   -1.5616 H   0  0  0  0  0  0  0  0  0  0  0  0
    1.8008    3.3113   -1.1242 H   0  0  0  0  0  0  0  0  0  0  0  0
   -0.2991    1.2070    0.1906 H   0  0  0  0  0  0  0  0  0  0  0  0
    2.1227    2.3123    1.2926 H   0  0  0  0  0  0  0  0  0  0  0  0
  2  1  2  0  0  0  0
  3  2  1  0  0  0  0
  4  3  2  0  0  0  0
  5  3  1  0  0  0  0
  6  5  1  0  0  0  0
  7  6  1  0  0  0  0
  8  6  1  0  0  0  0
  9  5  1  0  0  0  0
 10  9  1  0  0  0  0
 11 10  1  0  0  0  0
 12 11  1  0  0  0  0
 13 11  1  0  0  0  0
 14 13  1  0  0  0  0
 15 14  1  0  0  0  0
 16 15  1  0  0  0  0
 17 15  1  0  0  0  0
 18 14  1  0  0  0  0
 19 18  1  0  0  0  0
 20 19  1  0  0  0  0
 21 20  1  0  0  0  0
 22 21  1  0  0  0  0
 23 22  1  0  0  0  0
 23 13  1  0  0  0  0
 24 23  1  0  0  0  0
 24 21  1  0  0  0  0
 25 24  1  0  0  0  0
 25  2  1  0  0  0  0
 25 20  1  0  0  0  0
 25  9  1  0  0  0  0
  1 26  1  0  0  0  0
  1 27  1  0  0  0  0
  5 28  1  0  0  0  0
  6 29  1  0  0  0  0
  7 30  1  0  0  0  0
  8 31  1  0  0  0  0
  9 32  1  0  0  0  0
 10 33  1  0  0  0  0
 10 34  1  0  0  0  0
 11 35  1  0  0  0  0
 12 36  1  0  0  0  0
 13 37  1  0  0  0  0
 14 38  1  0  0  0  0
 15 39  1  0  0  0  0
 16 40  1  0  0  0  0
 16 41  1  0  0  0  0
 16 42  1  0  0  0  0
 17 43  1  0  0  0  0
 17 44  1  0  0  0  0
 17 45  1  0  0  0  0
 18 46  1  0  0  0  0
 18 47  1  0  0  0  0
 19 48  1  0  0  0  0
 19 49  1  0  0  0  0
 20 50  1  0  0  0  0
 21 51  1  0  0  0  0
 23 52  1  0  0  0  0
 24 53  1  0  0  0  0
M  END
>  <energy>
222.17360855225846

$$$$
