CC1C2=NC(=O)C34CCC5(CCO)OC2C5(O)C3CCC4C1(C)CO
                    3D

 52 56  0  0  0  0  0  0  0  0999 V2000
    3.4064    1.2379    1.0780 C   0  0  0  0  0  0  0  0  0  0  0  0
    2.2328    0.8462    0.1768 C   0  0  0  0  0  0  0  0  0  0  0  0
    0.9371    0.8589    1.0260 C   0  0  0  0  0  0  0  0  0  0  0  0
    0.8804   -0.0004    1.9770 N   0  0  0  0  0  0  0  0  0  0  0  0
    0.5373   -1.2155    1.4710 C   0  0  0  0  0  0  0  0  0  0  0  0
    0.8659   -2.2452    2.0591 O   0  0  0  0  0  0  0  0  0  0  0  0
   -0.1986   -1.2949    0.0635 C   0  0  0  0  0  0  0  0  0  0  0  0
   -1.3523   -2.1545    0.6011 C   0  0  0  0  0  0  0  0  0  0  0  0
   -2.2673   -1.1211    1.4537 C   0  0  0  0  0  0  0  0  0  0  0  0
   -2.2985    0.4363    0.9656 C   0  0  0  0  0  0  0  0  0  0  0  0
   -3.7558    0.9511    1.0418 C   0  0  0  0  0  0  0  0  0  0  0  0
   -3.8769    2.4680    1.1581 C   0  0  0  0  0  0  0  0  0  0  0  0
   -3.5155    2.8863    2.4671 O   0  0  0  0  0  0  0  0  0  0  0  0
   -1.4342    1.2741    1.7903 O   0  0  0  0  0  0  0  0  0  0  0  0
   -0.4719    1.5335    0.6943 C   0  0  0  0  0  0  0  0  0  0  0  0
   -1.4635    0.8398   -0.3106 C   0  0  0  0  0  0  0  0  0  0  0  0
   -2.0733    1.7144   -1.2908 O   0  0  0  0  0  0  0  0  0  0  0  0
   -1.2191   -0.5173   -0.8943 C   0  0  0  0  0  0  0  0  0  0  0  0
   -0.7849   -0.7171   -2.3794 C   0  0  0  0  0  0  0  0  0  0  0  0
    0.4670   -1.6102   -2.2862 C   0  0  0  0  0  0  0  0  0  0  0  0
    0.9753   -1.0964   -0.9604 C   0  0  0  0  0  0  0  0  0  0  0  0
    2.4284   -0.5821   -0.6083 C   0  0  0  0  0  0  0  0  0  0  0  0
    3.2579   -1.6258    0.1598 C   0  0  0  0  0  0  0  0  0  0  0  0
    3.1926   -0.3006   -1.9458 C   0  0  0  0  0  0  0  0  0  0  0  0
    4.4915    0.2313   -1.7383 O   0  0  0  0  0  0  0  0  0  0  0  0
    3.5434    0.5316    1.9023 H   0  0  0  0  0  0  0  0  0  0  0  0
    3.2249    2.2187    1.5314 H   0  0  0  0  0  0  0  0  0  0  0  0
    4.3471    1.3013    0.5280 H   0  0  0  0  0  0  0  0  0  0  0  0
    2.1031    1.6428   -0.5684 H   0  0  0  0  0  0  0  0  0  0  0  0
   -1.0767   -2.9925    1.2540 H   0  0  0  0  0  0  0  0  0  0  0  0
   -1.9432   -2.6572   -0.1779 H   0  0  0  0  0  0  0  0  0  0  0  0
   -1.9469   -1.1355    2.5028 H   0  0  0  0  0  0  0  0  0  0  0  0
   -3.2863   -1.5244    1.4370 H   0  0  0  0  0  0  0  0  0  0  0  0
   -4.2995    0.6021    0.1550 H   0  0  0  0  0  0  0  0  0  0  0  0
   -4.2459    0.5113    1.9190 H   0  0  0  0  0  0  0  0  0  0  0  0
   -3.2636    3.0127    0.4378 H   0  0  0  0  0  0  0  0  0  0  0  0
   -4.9190    2.7627    1.0012 H   0  0  0  0  0  0  0  0  0  0  0  0
   -2.6251    2.5115    2.6386 H   0  0  0  0  0  0  0  0  0  0  0  0
   -0.3802    2.6147    0.5431 H   0  0  0  0  0  0  0  0  0  0  0  0
   -2.8454    1.2386   -1.6446 H   0  0  0  0  0  0  0  0  0  0  0  0
   -2.2283   -0.9560   -0.9908 H   0  0  0  0  0  0  0  0  0  0  0  0
   -0.5604    0.2397   -2.8675 H   0  0  0  0  0  0  0  0  0  0  0  0
   -1.5589   -1.2165   -2.9750 H   0  0  0  0  0  0  0  0  0  0  0  0
    1.1209   -1.4531   -3.1451 H   0  0  0  0  0  0  0  0  0  0  0  0
    0.2066   -2.6718   -2.2297 H   0  0  0  0  0  0  0  0  0  0  0  0
    0.8093   -0.0398   -1.2357 H   0  0  0  0  0  0  0  0  0  0  0  0
    3.1212   -2.6229   -0.2735 H   0  0  0  0  0  0  0  0  0  0  0  0
    4.3289   -1.3991    0.1196 H   0  0  0  0  0  0  0  0  0  0  0  0
    3.0190   -1.6834    1.2207 H   0  0  0  0  0  0  0  0  0  0  0  0
    3.3191   -1.2310   -2.5084 H   0  0  0  0  0  0  0  0  0  0  0  0
    2.6411    0.3982   -2.5869 H   0  0  0  0  0  0  0  0  0  0  0  0
    4.4342    1.2007   -1.7559 H   0  0  0  0  0  0  0  0  0  0  0  0
  2  1  1  0  0  0  0
  3  2  1  0  0  0  0
  4  3  2  0  0  0  0
  5  4  1  0  0  0  0
  6  5  2  0  0  0  0
  7  5  1  0  0  0  0
  8  7  1  0  0  0  0
  9  8  1  0  0  0  0
 10  9  1  0  0  0  0
 11 10  1  0  0  0  0
 12 11  1  0  0  0  0
 13 12  1  0  0  0  0
 14 10  1  0  0  0  0
 15 14  1  0  0  0  0
 15  3  1  0  0  0  0
 16 15  1  0  0  0  0
 16 10  1  0  0  0  0
 17 16  1  0  0  0  0
 18 16  1  0  0  0  0
 18  7  1  0  0  0  0
 19 18  1  0  0  0  0
 20 19  1  0  0  0  0
 21 20  1  0  0  0  0
 21  7  1  0  0  0  0
 22 21  1  0  0  0  0
 22  2  1  0  0  0  0
 23 22  1  0  0  0  0
 24 22  1  0  0  0  0
 25 24  1  0  0  0  0
  1 26  1  0  0  0  0
  1 27  1  0  0  0  0
  1 28  1  0  0  0  0
  2 29  1  0  0  0  0
  8 30  1  0  0  0  0
  8 31  1  0  0  0  0
  9 32  1  0  0  0  0
  9 33  1  0  0  0  0
 11 34  1  0  0  0  0
 11 35  1  0  0  0  0
 12 36  1  0  0  0  0
 12 37  1  0  0  0  0
 13 38  1  0  0  0  0
 15 39  1  0  0  0  0
 17 40  1  0  0  0  0
 18 41  1  0  0  0  0
 19 42  1  0  0  0  0
 19 43  1  0  0  0  0
 20 44  1  0  0  0  0
 20 45  1  0  0  0  0
 21 46  1  0  0  0  0
 23 47  1  0  0  0  0
 23 48  1  0  0  0  0
 23 49  1  0  0  0  0
 24 50  1  0  0  0  0
 24 51  1  0  0  0  0
 25 52  1  0  0  0  0
M  END
>  <energy>
297.58818889562855

$$$$
