CC1C2OC(C)(C)OC2C1(C)COC1C2=NC3CC(C2)C(COC(=O)CN2CCCCC2)CC1C3
                    3D

 79 84  0  0  0  0  0  0  0  0999 V2000
   -1.8802    5.0590   -3.5472 C   0  0  0  0  0  0  0  0  0  0  0  0
   -1.5250    4.2907   -2.2886 C   0  0  0  0  0  0  0  0  0  0  0  0
   -1.3513    5.1408   -1.0060 C   0  0  0  0  0  0  0  0  0  0  0  0
   -2.3742    4.9694    0.0018 O   0  0  0  0  0  0  0  0  0  0  0  0
   -1.9492    3.9333    0.9111 C   0  0  0  0  0  0  0  0  0  0  0  0
   -3.0305    2.8699    0.9899 C   0  0  0  0  0  0  0  0  0  0  0  0
   -1.6778    4.5573    2.2714 C   0  0  0  0  0  0  0  0  0  0  0  0
   -0.7370    3.3323    0.4059 O   0  0  0  0  0  0  0  0  0  0  0  0
   -0.1738    4.2170   -0.5964 C   0  0  0  0  0  0  0  0  0  0  0  0
   -0.0597    3.7550   -2.0736 C   0  0  0  0  0  0  0  0  0  0  0  0
    1.0198    4.5303   -2.8403 C   0  0  0  0  0  0  0  0  0  0  0  0
    0.0516    2.2412   -2.2745 C   0  0  0  0  0  0  0  0  0  0  0  0
    1.4048    1.8141   -2.0954 O   0  0  0  0  0  0  0  0  0  0  0  0
    1.5278    0.7093   -1.2078 C   0  0  0  0  0  0  0  0  0  0  0  0
    1.5031    1.1825    0.2479 C   0  0  0  0  0  0  0  0  0  0  0  0
    2.3810    2.0430    0.6728 N   0  0  0  0  0  0  0  0  0  0  0  0
    3.6548    1.2787    0.7092 C   0  0  0  0  0  0  0  0  0  0  0  0
    3.5025    0.0717    1.6707 C   0  0  0  0  0  0  0  0  0  0  0  0
    2.1916   -0.7414    1.4886 C   0  0  0  0  0  0  0  0  0  0  0  0
    1.0011    0.2151    1.2763 C   0  0  0  0  0  0  0  0  0  0  0  0
    2.2594   -1.8046    0.3514 C   0  0  0  0  0  0  0  0  0  0  0  0
    2.8088   -3.1413    0.8984 C   0  0  0  0  0  0  0  0  0  0  0  0
    1.8811   -3.6193    1.8879 O   0  0  0  0  0  0  0  0  0  0  0  0
    0.9349   -4.5005    1.4449 C   0  0  0  0  0  0  0  0  0  0  0  0
    1.0669   -5.2403    0.4796 O   0  0  0  0  0  0  0  0  0  0  0  0
   -0.3071   -4.3446    2.3172 C   0  0  0  0  0  0  0  0  0  0  0  0
   -1.5851   -4.7282    1.6894 N   0  0  0  0  0  0  0  0  0  0  0  0
   -1.8195   -4.1551    0.3660 C   0  0  0  0  0  0  0  0  0  0  0  0
   -3.3237   -4.1800    0.0677 C   0  0  0  0  0  0  0  0  0  0  0  0
   -4.0191   -5.4249    0.6390 C   0  0  0  0  0  0  0  0  0  0  0  0
   -3.0305   -6.5758    0.8241 C   0  0  0  0  0  0  0  0  0  0  0  0
   -1.8268   -6.1751    1.6961 C   0  0  0  0  0  0  0  0  0  0  0  0
    3.0232   -1.4040   -0.9204 C   0  0  0  0  0  0  0  0  0  0  0  0
    2.9185    0.0585   -1.4093 C   0  0  0  0  0  0  0  0  0  0  0  0
    4.0188    0.9055   -0.7338 C   0  0  0  0  0  0  0  0  0  0  0  0
   -1.8079    4.4107   -4.4281 H   0  0  0  0  0  0  0  0  0  0  0  0
   -2.9070    5.4339   -3.4875 H   0  0  0  0  0  0  0  0  0  0  0  0
   -1.2252    5.9202   -3.7034 H   0  0  0  0  0  0  0  0  0  0  0  0
   -2.2745    3.4989   -2.1528 H   0  0  0  0  0  0  0  0  0  0  0  0
   -1.0795    6.1911   -1.1490 H   0  0  0  0  0  0  0  0  0  0  0  0
   -3.2174    2.4277    0.0035 H   0  0  0  0  0  0  0  0  0  0  0  0
   -2.7390    2.0551    1.6598 H   0  0  0  0  0  0  0  0  0  0  0  0
   -3.9753    3.2990    1.3372 H   0  0  0  0  0  0  0  0  0  0  0  0
   -0.9100    5.3385    2.2019 H   0  0  0  0  0  0  0  0  0  0  0  0
   -2.5837    5.0283    2.6720 H   0  0  0  0  0  0  0  0  0  0  0  0
   -1.3152    3.8106    2.9853 H   0  0  0  0  0  0  0  0  0  0  0  0
    0.7052    4.7370   -0.1996 H   0  0  0  0  0  0  0  0  0  0  0  0
    0.9117    5.6117   -2.7123 H   0  0  0  0  0  0  0  0  0  0  0  0
    0.9715    4.3119   -3.9132 H   0  0  0  0  0  0  0  0  0  0  0  0
    2.0225    4.2693   -2.4851 H   0  0  0  0  0  0  0  0  0  0  0  0
   -0.6419    1.7055   -1.6141 H   0  0  0  0  0  0  0  0  0  0  0  0
   -0.2272    1.9867   -3.3046 H   0  0  0  0  0  0  0  0  0  0  0  0
    0.7351   -0.0194   -1.4093 H   0  0  0  0  0  0  0  0  0  0  0  0
    4.4359    1.9383    1.1059 H   0  0  0  0  0  0  0  0  0  0  0  0
    4.3817   -0.5759    1.6141 H   0  0  0  0  0  0  0  0  0  0  0  0
    3.4842    0.4747    2.6928 H   0  0  0  0  0  0  0  0  0  0  0  0
    1.9967   -1.2639    2.4347 H   0  0  0  0  0  0  0  0  0  0  0  0
    0.0914   -0.2892    0.9424 H   0  0  0  0  0  0  0  0  0  0  0  0
    0.7801    0.7631    2.2013 H   0  0  0  0  0  0  0  0  0  0  0  0
    1.2242   -2.0116    0.0470 H   0  0  0  0  0  0  0  0  0  0  0  0
    3.7705   -2.9907    1.3942 H   0  0  0  0  0  0  0  0  0  0  0  0
    2.9615   -3.8705    0.0985 H   0  0  0  0  0  0  0  0  0  0  0  0
   -0.1548   -4.8774    3.2636 H   0  0  0  0  0  0  0  0  0  0  0  0
   -0.3943   -3.2797    2.5688 H   0  0  0  0  0  0  0  0  0  0  0  0
   -1.2826   -4.7171   -0.4088 H   0  0  0  0  0  0  0  0  0  0  0  0
   -1.4671   -3.1187    0.3048 H   0  0  0  0  0  0  0  0  0  0  0  0
   -3.8072   -3.2824    0.4744 H   0  0  0  0  0  0  0  0  0  0  0  0
   -3.4668   -4.1449   -1.0191 H   0  0  0  0  0  0  0  0  0  0  0  0
   -4.4712   -5.1757    1.6060 H   0  0  0  0  0  0  0  0  0  0  0  0
   -4.8426   -5.7308   -0.0137 H   0  0  0  0  0  0  0  0  0  0  0  0
   -2.6708   -6.8873   -0.1647 H   0  0  0  0  0  0  0  0  0  0  0  0
   -3.5369   -7.4416    1.2644 H   0  0  0  0  0  0  0  0  0  0  0  0
   -2.0110   -6.4935    2.7286 H   0  0  0  0  0  0  0  0  0  0  0  0
   -0.9511   -6.7333    1.3478 H   0  0  0  0  0  0  0  0  0  0  0  0
    4.0829   -1.6727   -0.8099 H   0  0  0  0  0  0  0  0  0  0  0  0
    2.6539   -2.0476   -1.7353 H   0  0  0  0  0  0  0  0  0  0  0  0
    3.1504    0.0496   -2.4841 H   0  0  0  0  0  0  0  0  0  0  0  0
    4.1367    1.8334   -1.3114 H   0  0  0  0  0  0  0  0  0  0  0  0
    4.9849    0.3891   -0.7572 H   0  0  0  0  0  0  0  0  0  0  0  0
  2  1  1  0  0  0  0
  3  2  1  0  0  0  0
  4  3  1  0  0  0  0
  5  4  1  0  0  0  0
  6  5  1  0  0  0  0
  7  5  1  0  0  0  0
  8  5  1  0  0  0  0
  9  8  1  0  0  0  0
  9  3  1  0  0  0  0
 10  9  1  0  0  0  0
 10  2  1  0  0  0  0
 11 10  1  0  0  0  0
 12 10  1  0  0  0  0
 13 12  1  0  0  0  0
 14 13  1  0  0  0  0
 15 14  1  0  0  0  0
 16 15  2  0  0  0  0
 17 16  1  0  0  0  0
 18 17  1  0  0  0  0
 19 18  1  0  0  0  0
 20 19  1  0  0  0  0
 20 15  1  0  0  0  0
 21 19  1  0  0  0  0
 22 21  1  0  0  0  0
 23 22  1  0  0  0  0
 24 23  1  0  0  0  0
 25 24  2  0  0  0  0
 26 24  1  0  0  0  0
 27 26  1  0  0  0  0
 28 27  1  0  0  0  0
 29 28  1  0  0  0  0
 30 29  1  0  0  0  0
 31 30  1  0  0  0  0
 32 31  1  0  0  0  0
 32 27  1  0  0  0  0
 33 21  1  0  0  0  0
 34 33  1  0  0  0  0
 34 14  1  0  0  0  0
 35 34  1  0  0  0  0
 35 17  1  0  0  0  0
  1 36  1  0  0  0  0
  1 37  1  0  0  0  0
  1 38  1  0  0  0  0
  2 39  1  0  0  0  0
  3 40  1  0  0  0  0
  6 41  1  0  0  0  0
  6 42  1  0  0  0  0
  6 43  1  0  0  0  0
  7 44  1  0  0  0  0
  7 45  1  0  0  0  0
  7 46  1  0  0  0  0
  9 47  1  0  0  0  0
 11 48  1  0  0  0  0
 11 49  1  0  0  0  0
 11 50  1  0  0  0  0
 12 51  1  0  0  0  0
 12 52  1  0  0  0  0
 14 53  1  0  0  0  0
 17 54  1  0  0  0  0
 18 55  1  0  0  0  0
 18 56  1  0  0  0  0
 19 57  1  0  0  0  0
 20 58  1  0  0  0  0
 20 59  1  0  0  0  0
 21 60  1  0  0  0  0
 22 61  1  0  0  0  0
 22 62  1  0  0  0  0
 26 63  1  0  0  0  0
 26 64  1  0  0  0  0
 28 65  1  0  0  0  0
 28 66  1  0  0  0  0
 29 67  1  0  0  0  0
 29 68  1  0  0  0  0
 30 69  1  0  0  0  0
 30 70  1  0  0  0  0
 31 71  1  0  0  0  0
 31 72  1  0  0  0  0
 32 73  1  0  0  0  0
 32 74  1  0  0  0  0
 33 75  1  0  0  0  0
 33 76  1  0  0  0  0
 34 77  1  0  0  0  0
 35 78  1  0  0  0  0
 35 79  1  0  0  0  0
M  END
>  <energy>
185.6809778642745

$$$$
