Cc1nc(C2C3CCCCC34C(F)CC24)[nH]c1CNC(N)=NC#N
                    3D

 47 50  0  0  0  0  0  0  0  0999 V2000
    3.5128   -1.8122    2.6153 C   0  0  0  0  0  0  0  0  0  0  0  0
    2.3474   -1.5459    1.7398 C   0  0  0  0  0  0  0  0  0  0  0  0
    1.0703   -1.5753    2.2473 N   0  0  0  0  0  0  0  0  0  0  0  0
    0.2644   -1.2724    1.2501 C   0  0  0  0  0  0  0  0  0  0  0  0
   -1.2385   -1.1621    1.4610 C   0  0  0  0  0  0  0  0  0  0  0  0
   -1.9012    0.2134    1.2588 C   0  0  0  0  0  0  0  0  0  0  0  0
   -1.3741    1.6045    0.9611 C   0  0  0  0  0  0  0  0  0  0  0  0
   -2.6041    2.5051    0.7051 C   0  0  0  0  0  0  0  0  0  0  0  0
   -3.5858    1.9235   -0.3373 C   0  0  0  0  0  0  0  0  0  0  0  0
   -3.9760    0.4575   -0.0474 C   0  0  0  0  0  0  0  0  0  0  0  0
   -2.6926   -0.3297    0.0580 C   0  0  0  0  0  0  0  0  0  0  0  0
   -1.9511   -0.5907   -1.2815 C   0  0  0  0  0  0  0  0  0  0  0  0
   -0.7603    0.0187   -1.4738 F   0  0  0  0  0  0  0  0  0  0  0  0
   -1.8788   -2.0852   -0.9168 C   0  0  0  0  0  0  0  0  0  0  0  0
   -2.3028   -1.7602    0.5095 C   0  0  0  0  0  0  0  0  0  0  0  0
    0.9900   -1.0334    0.1152 N   0  0  0  0  0  0  0  0  0  0  0  0
    2.3164   -1.2529    0.3943 C   0  0  0  0  0  0  0  0  0  0  0  0
    3.3753   -1.1662   -0.6406 C   0  0  0  0  0  0  0  0  0  0  0  0
    3.9295    0.1648   -0.8677 N   0  0  0  0  0  0  0  0  0  0  0  0
    3.3148    1.0358   -1.7224 C   0  0  0  0  0  0  0  0  0  0  0  0
    2.1065    1.4369   -1.2484 N   0  0  0  0  0  0  0  0  0  0  0  0
    3.9215    1.3909   -2.8067 N   0  0  0  0  0  0  0  0  0  0  0  0
    3.3017    2.2462   -3.6258 C   0  0  0  0  0  0  0  0  0  0  0  0
    2.7469    2.9961   -4.3149 N   0  0  0  0  0  0  0  0  0  0  0  0
    3.2161   -1.8161    3.6696 H   0  0  0  0  0  0  0  0  0  0  0  0
    3.9570   -2.7840    2.3772 H   0  0  0  0  0  0  0  0  0  0  0  0
    4.2779   -1.0386    2.4850 H   0  0  0  0  0  0  0  0  0  0  0  0
   -1.4390   -1.5298    2.4806 H   0  0  0  0  0  0  0  0  0  0  0  0
   -2.5560    0.3491    2.1419 H   0  0  0  0  0  0  0  0  0  0  0  0
   -0.7119    1.6227    0.0928 H   0  0  0  0  0  0  0  0  0  0  0  0
   -0.8037    1.9908    1.8122 H   0  0  0  0  0  0  0  0  0  0  0  0
   -3.1487    2.6430    1.6494 H   0  0  0  0  0  0  0  0  0  0  0  0
   -2.2704    3.4991    0.3870 H   0  0  0  0  0  0  0  0  0  0  0  0
   -3.1172    1.9875   -1.3264 H   0  0  0  0  0  0  0  0  0  0  0  0
   -4.4886    2.5434   -0.3731 H   0  0  0  0  0  0  0  0  0  0  0  0
   -4.6217    0.0712   -0.8440 H   0  0  0  0  0  0  0  0  0  0  0  0
   -4.5513    0.4068    0.8839 H   0  0  0  0  0  0  0  0  0  0  0  0
   -2.5916   -0.4366   -2.1612 H   0  0  0  0  0  0  0  0  0  0  0  0
   -2.6119   -2.6952   -1.4601 H   0  0  0  0  0  0  0  0  0  0  0  0
   -0.9044   -2.5650   -1.0405 H   0  0  0  0  0  0  0  0  0  0  0  0
   -3.0960   -2.3631    0.9576 H   0  0  0  0  0  0  0  0  0  0  0  0
    0.6269   -0.6923   -0.7681 H   0  0  0  0  0  0  0  0  0  0  0  0
    4.2019   -1.8181   -0.3319 H   0  0  0  0  0  0  0  0  0  0  0  0
    3.0109   -1.5852   -1.5871 H   0  0  0  0  0  0  0  0  0  0  0  0
    4.8884    0.0484   -1.1895 H   0  0  0  0  0  0  0  0  0  0  0  0
    2.0858    1.4747   -0.2324 H   0  0  0  0  0  0  0  0  0  0  0  0
    1.7152    2.2802   -1.6546 H   0  0  0  0  0  0  0  0  0  0  0  0
  2  1  1  0  0  0  0
  3  2  1  0  0  0  0
  4  3  2  0  0  0  0
  5  4  1  0  0  0  0
  6  5  1  0  0  0  0
  7  6  1  0  0  0  0
  8  7  1  0  0  0  0
  9  8  1  0  0  0  0
 10  9  1  0  0  0  0
 11 10  1  0  0  0  0
 11  6  1  0  0  0  0
 12 11  1  0  0  0  0
 13 12  1  0  0  0  0
 14 12  1  0  0  0  0
 15 14  1  0  0  0  0
 15  5  1  0  0  0  0
 15 11  1  0  0  0  0
 16  4  1  0  0  0  0
 17 16  1  0  0  0  0
 17  2  2  0  0  0  0
 18 17  1  0  0  0  0
 19 18  1  0  0  0  0
 20 19  1  0  0  0  0
 21 20  1  0  0  0  0
 22 20  2  0  0  0  0
 23 22  1  0  0  0  0
 24 23  3  0  0  0  0
  1 25  1  0  0  0  0
  1 26  1  0  0  0  0
  1 27  1  0  0  0  0
  5 28  1  0  0  0  0
  6 29  1  0  0  0  0
  7 30  1  0  0  0  0
  7 31  1  0  0  0  0
  8 32  1  0  0  0  0
  8 33  1  0  0  0  0
  9 34  1  0  0  0  0
  9 35  1  0  0  0  0
 10 36  1  0  0  0  0
 10 37  1  0  0  0  0
 12 38  1  0  0  0  0
 14 39  1  0  0  0  0
 14 40  1  0  0  0  0
 15 41  1  0  0  0  0
 16 42  1  0  0  0  0
 18 43  1  0  0  0  0
 18 44  1  0  0  0  0
 19 45  1  0  0  0  0
 21 46  1  0  0  0  0
 21 47  1  0  0  0  0
M  END
>  <energy>
-87.344107689647316

$$$$
