CNC1CC2CC3CC(CCC(Cn4ccnc4)=NO)(C1)C23
                    3D

 48 51  0  0  0  0  0  0  0  0999 V2000
    2.0358   -2.4140   -1.7269 C   0  0  0  0  0  0  0  0  0  0  0  0
    1.7769   -1.1481   -2.3854 N   0  0  0  0  0  0  0  0  0  0  0  0
    2.4604    0.0462   -1.8595 C   0  0  0  0  0  0  0  0  0  0  0  0
    3.7964   -0.1391   -1.0948 C   0  0  0  0  0  0  0  0  0  0  0  0
    3.6075   -0.5586    0.3652 C   0  0  0  0  0  0  0  0  0  0  0  0
    4.0865    0.3489    1.5872 C   0  0  0  0  0  0  0  0  0  0  0  0
    2.9377    1.2821    1.2357 C   0  0  0  0  0  0  0  0  0  0  0  0
    1.4656    1.5208    1.5362 C   0  0  0  0  0  0  0  0  0  0  0  0
    1.1359    0.5382    0.3077 C   0  0  0  0  0  0  0  0  0  0  0  0
   -0.2281   -0.1631    0.4348 C   0  0  0  0  0  0  0  0  0  0  0  0
   -1.3879    0.8333    0.3613 C   0  0  0  0  0  0  0  0  0  0  0  0
   -2.4970    0.3081   -0.5371 C   0  0  0  0  0  0  0  0  0  0  0  0
   -3.3941   -0.7867    0.0123 C   0  0  0  0  0  0  0  0  0  0  0  0
   -4.3895   -0.2842    0.9423 N   0  0  0  0  0  0  0  0  0  0  0  0
   -5.1778    0.8221    0.7912 C   0  0  0  0  0  0  0  0  0  0  0  0
   -5.9775    0.8480    1.9093 C   0  0  0  0  0  0  0  0  0  0  0  0
   -5.7029   -0.2189    2.7250 N   0  0  0  0  0  0  0  0  0  0  0  0
   -4.7542   -0.8900    2.1125 C   0  0  0  0  0  0  0  0  0  0  0  0
   -2.5977    0.8290   -1.7264 N   0  0  0  0  0  0  0  0  0  0  0  0
   -3.6476    0.2678   -2.4566 O   0  0  0  0  0  0  0  0  0  0  0  0
    1.4434    0.9692   -1.1412 C   0  0  0  0  0  0  0  0  0  0  0  0
    2.2578   -0.2488    0.9539 C   0  0  0  0  0  0  0  0  0  0  0  0
    1.4235   -3.1873   -2.2044 H   0  0  0  0  0  0  0  0  0  0  0  0
    1.7487   -2.3995   -0.6738 H   0  0  0  0  0  0  0  0  0  0  0  0
    3.0799   -2.7266   -1.8248 H   0  0  0  0  0  0  0  0  0  0  0  0
    2.0072   -1.2470   -3.3746 H   0  0  0  0  0  0  0  0  0  0  0  0
    2.7412    0.6023   -2.7663 H   0  0  0  0  0  0  0  0  0  0  0  0
    4.3584    0.8032   -1.1403 H   0  0  0  0  0  0  0  0  0  0  0  0
    4.4346   -0.8656   -1.6158 H   0  0  0  0  0  0  0  0  0  0  0  0
    3.9048   -1.6078    0.4996 H   0  0  0  0  0  0  0  0  0  0  0  0
    5.0855    0.7808    1.4633 H   0  0  0  0  0  0  0  0  0  0  0  0
    4.0417   -0.1096    2.5836 H   0  0  0  0  0  0  0  0  0  0  0  0
    3.2544    1.9385    0.4166 H   0  0  0  0  0  0  0  0  0  0  0  0
    1.1345    2.5545    1.3900 H   0  0  0  0  0  0  0  0  0  0  0  0
    1.1277    1.2016    2.5303 H   0  0  0  0  0  0  0  0  0  0  0  0
   -0.3193   -0.9361   -0.3386 H   0  0  0  0  0  0  0  0  0  0  0  0
   -0.2976   -0.6914    1.3954 H   0  0  0  0  0  0  0  0  0  0  0  0
   -1.7983    1.0057    1.3628 H   0  0  0  0  0  0  0  0  0  0  0  0
   -1.0665    1.8084   -0.0233 H   0  0  0  0  0  0  0  0  0  0  0  0
   -2.7729   -1.5128    0.5476 H   0  0  0  0  0  0  0  0  0  0  0  0
   -3.9321   -1.3220   -0.7747 H   0  0  0  0  0  0  0  0  0  0  0  0
   -5.1158    1.4751   -0.0694 H   0  0  0  0  0  0  0  0  0  0  0  0
   -6.7428    1.5703    2.1644 H   0  0  0  0  0  0  0  0  0  0  0  0
   -4.3147   -1.8134    2.4667 H   0  0  0  0  0  0  0  0  0  0  0  0
   -3.5752    0.7308   -3.3134 H   0  0  0  0  0  0  0  0  0  0  0  0
    0.5219    1.0270   -1.7360 H   0  0  0  0  0  0  0  0  0  0  0  0
    1.8299    1.9956   -1.1590 H   0  0  0  0  0  0  0  0  0  0  0  0
    1.9917   -0.8368    1.8476 H   0  0  0  0  0  0  0  0  0  0  0  0
  2  1  1  0  0  0  0
  3  2  1  0  0  0  0
  4  3  1  0  0  0  0
  5  4  1  0  0  0  0
  6  5  1  0  0  0  0
  7  6  1  0  0  0  0
  8  7  1  0  0  0  0
  9  8  1  0  0  0  0
 10  9  1  0  0  0  0
 11 10  1  0  0  0  0
 12 11  1  0  0  0  0
 13 12  1  0  0  0  0
 14 13  1  0  0  0  0
 15 14  1  0  0  0  0
 16 15  2  0  0  0  0
 17 16  1  0  0  0  0
 18 17  2  0  0  0  0
 18 14  1  0  0  0  0
 19 12  2  0  0  0  0
 20 19  1  0  0  0  0
 21  9  1  0  0  0  0
 21  3  1  0  0  0  0
 22  9  1  0  0  0  0
 22  5  1  0  0  0  0
 22  7  1  0  0  0  0
  1 23  1  0  0  0  0
  1 24  1  0  0  0  0
  1 25  1  0  0  0  0
  2 26  1  0  0  0  0
  3 27  1  0  0  0  0
  4 28  1  0  0  0  0
  4 29  1  0  0  0  0
  5 30  1  0  0  0  0
  6 31  1  0  0  0  0
  6 32  1  0  0  0  0
  7 33  1  0  0  0  0
  8 34  1  0  0  0  0
  8 35  1  0  0  0  0
 10 36  1  0  0  0  0
 10 37  1  0  0  0  0
 11 38  1  0  0  0  0
 11 39  1  0  0  0  0
 13 40  1  0  0  0  0
 13 41  1  0  0  0  0
 15 42  1  0  0  0  0
 16 43  1  0  0  0  0
 18 44  1  0  0  0  0
 20 45  1  0  0  0  0
 21 46  1  0  0  0  0
 21 47  1  0  0  0  0
 22 48  1  0  0  0  0
M  END
>  <energy>
120.00533528305179

$$$$
