Cc1[nH]c2c3c1CC(C)(C)C1CCC24CCN(CC2CC2)C(C4)C(=S)N1C(CCCN)C3
                    3D

 74 79  0  0  0  0  0  0  0  0999 V2000
    3.6228   -2.1486    2.8698 C   0  0  0  0  0  0  0  0  0  0  0  0
    2.4860   -1.3833    2.3068 C   0  0  0  0  0  0  0  0  0  0  0  0
    1.1740   -1.7382    2.5602 N   0  0  0  0  0  0  0  0  0  0  0  0
    0.4192   -1.1948    1.5152 C   0  0  0  0  0  0  0  0  0  0  0  0
    1.0331    0.0473    1.3714 C   0  0  0  0  0  0  0  0  0  0  0  0
    2.4036   -0.3479    1.3957 C   0  0  0  0  0  0  0  0  0  0  0  0
    3.4269    0.1944    0.4576 C   0  0  0  0  0  0  0  0  0  0  0  0
    3.2345   -0.3887   -1.0037 C   0  0  0  0  0  0  0  0  0  0  0  0
    3.7824    0.6222   -2.0557 C   0  0  0  0  0  0  0  0  0  0  0  0
    4.2378   -1.5774   -1.1072 C   0  0  0  0  0  0  0  0  0  0  0  0
    1.6969   -0.8582   -1.4332 C   0  0  0  0  0  0  0  0  0  0  0  0
    1.4044   -2.4594   -1.0975 C   0  0  0  0  0  0  0  0  0  0  0  0
    0.5500   -3.1216    0.0995 C   0  0  0  0  0  0  0  0  0  0  0  0
   -0.4892   -2.1368    0.6765 C   0  0  0  0  0  0  0  0  0  0  0  0
   -1.7758   -2.4205    1.4987 C   0  0  0  0  0  0  0  0  0  0  0  0
   -2.8427   -1.2002    1.3259 C   0  0  0  0  0  0  0  0  0  0  0  0
   -2.9523   -0.4185    0.0051 N   0  0  0  0  0  0  0  0  0  0  0  0
   -4.0437   -0.8508   -0.8659 C   0  0  0  0  0  0  0  0  0  0  0  0
   -5.3916   -0.6543   -0.2172 C   0  0  0  0  0  0  0  0  0  0  0  0
   -6.3791    0.3349   -0.7961 C   0  0  0  0  0  0  0  0  0  0  0  0
   -5.7476    0.6072    0.5373 C   0  0  0  0  0  0  0  0  0  0  0  0
   -1.6144   -0.4625   -0.5923 C   0  0  0  0  0  0  0  0  0  0  0  0
   -1.1888   -1.8603   -0.6384 C   0  0  0  0  0  0  0  0  0  0  0  0
   -0.8580    0.1178   -1.7662 C   0  0  0  0  0  0  0  0  0  0  0  0
   -1.4601    0.3065   -3.3159 S   0  0  0  0  0  0  0  0  0  0  0  0
    0.5572    0.2924   -1.4454 N   0  0  0  0  0  0  0  0  0  0  0  0
    0.8080    1.5391   -0.6664 C   0  0  0  0  0  0  0  0  0  0  0  0
    0.0867    2.7884   -1.2414 C   0  0  0  0  0  0  0  0  0  0  0  0
    0.6149    4.1280   -0.7007 C   0  0  0  0  0  0  0  0  0  0  0  0
   -0.3103    4.7539    0.3432 C   0  0  0  0  0  0  0  0  0  0  0  0
    0.2640    6.0037    0.8298 N   0  0  0  0  0  0  0  0  0  0  0  0
    0.5805    1.3702    0.8403 C   0  0  0  0  0  0  0  0  0  0  0  0
    4.5723   -1.6318    2.7067 H   0  0  0  0  0  0  0  0  0  0  0  0
    3.4983   -2.2799    3.9495 H   0  0  0  0  0  0  0  0  0  0  0  0
    3.6878   -3.1376    2.4065 H   0  0  0  0  0  0  0  0  0  0  0  0
    0.9266   -2.5884    3.0500 H   0  0  0  0  0  0  0  0  0  0  0  0
    4.4343   -0.0275    0.8322 H   0  0  0  0  0  0  0  0  0  0  0  0
    3.3814    1.2882    0.4567 H   0  0  0  0  0  0  0  0  0  0  0  0
    3.8888    0.1375   -3.0346 H   0  0  0  0  0  0  0  0  0  0  0  0
    3.1500    1.4960   -2.2140 H   0  0  0  0  0  0  0  0  0  0  0  0
    4.7737    0.9894   -1.7612 H   0  0  0  0  0  0  0  0  0  0  0  0
    5.2750   -1.2240   -1.0404 H   0  0  0  0  0  0  0  0  0  0  0  0
    4.1396   -2.0994   -2.0658 H   0  0  0  0  0  0  0  0  0  0  0  0
    4.1116   -2.2964   -0.2908 H   0  0  0  0  0  0  0  0  0  0  0  0
    1.8045   -0.9432   -2.5279 H   0  0  0  0  0  0  0  0  0  0  0  0
    2.3493   -3.0025   -1.0772 H   0  0  0  0  0  0  0  0  0  0  0  0
    0.9813   -2.8662   -2.0321 H   0  0  0  0  0  0  0  0  0  0  0  0
    1.2450   -3.5192    0.8478 H   0  0  0  0  0  0  0  0  0  0  0  0
    0.0521   -4.0181   -0.2989 H   0  0  0  0  0  0  0  0  0  0  0  0
   -1.5652   -2.5635    2.5648 H   0  0  0  0  0  0  0  0  0  0  0  0
   -2.2563   -3.3470    1.1549 H   0  0  0  0  0  0  0  0  0  0  0  0
   -3.8239   -1.5552    1.6569 H   0  0  0  0  0  0  0  0  0  0  0  0
   -2.5458   -0.4492    2.0706 H   0  0  0  0  0  0  0  0  0  0  0  0
   -3.9554   -1.9000   -1.1678 H   0  0  0  0  0  0  0  0  0  0  0  0
   -4.0287   -0.2579   -1.7859 H   0  0  0  0  0  0  0  0  0  0  0  0
   -5.7890   -1.5904    0.1611 H   0  0  0  0  0  0  0  0  0  0  0  0
   -7.4247    0.0514   -0.8181 H   0  0  0  0  0  0  0  0  0  0  0  0
   -6.0698    0.9593   -1.6268 H   0  0  0  0  0  0  0  0  0  0  0  0
   -6.3594    0.5038    1.4252 H   0  0  0  0  0  0  0  0  0  0  0  0
   -5.0031    1.3924    0.5975 H   0  0  0  0  0  0  0  0  0  0  0  0
   -1.1477    0.0807    0.1976 H   0  0  0  0  0  0  0  0  0  0  0  0
   -0.6956   -2.0912   -1.5792 H   0  0  0  0  0  0  0  0  0  0  0  0
   -2.0191   -2.5704   -0.7897 H   0  0  0  0  0  0  0  0  0  0  0  0
    1.8525    1.7800   -0.8136 H   0  0  0  0  0  0  0  0  0  0  0  0
   -0.9971    2.7196   -1.0949 H   0  0  0  0  0  0  0  0  0  0  0  0
    0.2561    2.7972   -2.3256 H   0  0  0  0  0  0  0  0  0  0  0  0
    1.6319    4.0151   -0.3058 H   0  0  0  0  0  0  0  0  0  0  0  0
    0.6916    4.8261   -1.5455 H   0  0  0  0  0  0  0  0  0  0  0  0
   -0.4712    4.0770    1.1873 H   0  0  0  0  0  0  0  0  0  0  0  0
   -1.2853    4.9680   -0.1069 H   0  0  0  0  0  0  0  0  0  0  0  0
   -0.3962    6.4604    1.4591 H   0  0  0  0  0  0  0  0  0  0  0  0
    1.0961    5.8068    1.3839 H   0  0  0  0  0  0  0  0  0  0  0  0
   -0.4516    1.5789    1.1423 H   0  0  0  0  0  0  0  0  0  0  0  0
    1.1562    2.1473    1.3622 H   0  0  0  0  0  0  0  0  0  0  0  0
  2  1  1  0  0  0  0
  3  2  1  0  0  0  0
  4  3  1  0  0  0  0
  5  4  2  0  0  0  0
  6  5  1  0  0  0  0
  6  2  2  0  0  0  0
  7  6  1  0  0  0  0
  8  7  1  0  0  0  0
  9  8  1  0  0  0  0
 10  8  1  0  0  0  0
 11  8  1  0  0  0  0
 12 11  1  0  0  0  0
 13 12  1  0  0  0  0
 14 13  1  0  0  0  0
 14  4  1  0  0  0  0
 15 14  1  0  0  0  0
 16 15  1  0  0  0  0
 17 16  1  0  0  0  0
 18 17  1  0  0  0  0
 19 18  1  0  0  0  0
 20 19  1  0  0  0  0
 21 20  1  0  0  0  0
 21 19  1  0  0  0  0
 22 17  1  0  0  0  0
 23 22  1  0  0  0  0
 23 14  1  0  0  0  0
 24 22  1  0  0  0  0
 25 24  2  0  0  0  0
 26 24  1  0  0  0  0
 26 11  1  0  0  0  0
 27 26  1  0  0  0  0
 28 27  1  0  0  0  0
 29 28  1  0  0  0  0
 30 29  1  0  0  0  0
 31 30  1  0  0  0  0
 32 27  1  0  0  0  0
 32  5  1  0  0  0  0
  1 33  1  0  0  0  0
  1 34  1  0  0  0  0
  1 35  1  0  0  0  0
  3 36  1  0  0  0  0
  7 37  1  0  0  0  0
  7 38  1  0  0  0  0
  9 39  1  0  0  0  0
  9 40  1  0  0  0  0
  9 41  1  0  0  0  0
 10 42  1  0  0  0  0
 10 43  1  0  0  0  0
 10 44  1  0  0  0  0
 11 45  1  0  0  0  0
 12 46  1  0  0  0  0
 12 47  1  0  0  0  0
 13 48  1  0  0  0  0
 13 49  1  0  0  0  0
 15 50  1  0  0  0  0
 15 51  1  0  0  0  0
 16 52  1  0  0  0  0
 16 53  1  0  0  0  0
 18 54  1  0  0  0  0
 18 55  1  0  0  0  0
 19 56  1  0  0  0  0
 20 57  1  0  0  0  0
 20 58  1  0  0  0  0
 21 59  1  0  0  0  0
 21 60  1  0  0  0  0
 22 61  1  0  0  0  0
 23 62  1  0  0  0  0
 23 63  1  0  0  0  0
 27 64  1  0  0  0  0
 28 65  1  0  0  0  0
 28 66  1  0  0  0  0
 29 67  1  0  0  0  0
 29 68  1  0  0  0  0
 30 69  1  0  0  0  0
 30 70  1  0  0  0  0
 31 71  1  0  0  0  0
 31 72  1  0  0  0  0
 32 73  1  0  0  0  0
 32 74  1  0  0  0  0
M  END
>  <energy>
319.42071017026547

$$$$
