CCc1nn2c3[nH]c(=N)[nH]c(c4c3c(=O)n(C)c3c(O)nnn43)n12
                    3D

 36 40  0  0  0  0  0  0  0  0999 V2000
   -2.8277    2.4664   -0.4960 C   0  0  0  0  0  0  0  0  0  0  0  0
   -2.4728    1.2286   -1.3037 C   0  0  0  0  0  0  0  0  0  0  0  0
   -2.2116    0.0759   -0.4234 C   0  0  0  0  0  0  0  0  0  0  0  0
   -2.2303   -0.0601    0.8575 N   0  0  0  0  0  0  0  0  0  0  0  0
   -1.8220   -1.3650    0.7452 N   0  0  0  0  0  0  0  0  0  0  0  0
   -0.5683   -1.8106    1.3434 C   0  0  0  0  0  0  0  0  0  0  0  0
   -0.3895   -3.2126    1.1198 N   0  0  0  0  0  0  0  0  0  0  0  0
   -0.3941   -3.7776   -0.1504 C   0  0  0  0  0  0  0  0  0  0  0  0
   -0.5513   -5.0492   -0.3353 N   0  0  0  0  0  0  0  0  0  0  0  0
   -0.2643   -2.9463   -1.2561 N   0  0  0  0  0  0  0  0  0  0  0  0
   -0.4763   -1.5330   -1.2388 C   0  0  0  0  0  0  0  0  0  0  0  0
    0.5386   -0.8847   -0.5748 C   0  0  0  0  0  0  0  0  0  0  0  0
    0.5117   -1.0922    0.8890 C   0  0  0  0  0  0  0  0  0  0  0  0
    1.2358   -0.1680    1.8045 C   0  0  0  0  0  0  0  0  0  0  0  0
    1.2222   -0.3756    3.0153 O   0  0  0  0  0  0  0  0  0  0  0  0
    1.9214    0.9049    1.2038 N   0  0  0  0  0  0  0  0  0  0  0  0
    2.5815    1.8751    2.0685 C   0  0  0  0  0  0  0  0  0  0  0  0
    1.9049    1.0736   -0.1921 C   0  0  0  0  0  0  0  0  0  0  0  0
    2.4317    2.0255   -1.0321 C   0  0  0  0  0  0  0  0  0  0  0  0
    3.1510    3.0823   -0.6310 O   0  0  0  0  0  0  0  0  0  0  0  0
    2.0893    1.7686   -2.3196 N   0  0  0  0  0  0  0  0  0  0  0  0
    1.3443    0.6701   -2.3275 N   0  0  0  0  0  0  0  0  0  0  0  0
    1.2320    0.2102   -1.0514 N   0  0  0  0  0  0  0  0  0  0  0  0
   -1.7685   -1.1919   -0.6546 N   0  0  0  0  0  0  0  0  0  0  0  0
   -3.0289    3.3143   -1.1573 H   0  0  0  0  0  0  0  0  0  0  0  0
   -3.7174    2.2959    0.1228 H   0  0  0  0  0  0  0  0  0  0  0  0
   -2.0058    2.7440    0.1745 H   0  0  0  0  0  0  0  0  0  0  0  0
   -3.2856    0.9681   -1.9887 H   0  0  0  0  0  0  0  0  0  0  0  0
   -1.5772    1.4227   -1.9012 H   0  0  0  0  0  0  0  0  0  0  0  0
   -0.9628   -3.7285    1.7793 H   0  0  0  0  0  0  0  0  0  0  0  0
   -0.6101   -5.5193    0.5726 H   0  0  0  0  0  0  0  0  0  0  0  0
   -0.6375   -3.3921   -2.0882 H   0  0  0  0  0  0  0  0  0  0  0  0
    3.6400    1.9324    1.7983 H   0  0  0  0  0  0  0  0  0  0  0  0
    2.5057    1.6066    3.1258 H   0  0  0  0  0  0  0  0  0  0  0  0
    2.1076    2.8518    1.9288 H   0  0  0  0  0  0  0  0  0  0  0  0
    3.3843    3.5898   -1.4270 H   0  0  0  0  0  0  0  0  0  0  0  0
  2  1  1  0  0  0  0
  3  2  1  0  0  0  0
  4  3  2  0  0  0  0
  5  4  1  0  0  0  0
  6  5  1  0  0  0  0
  7  6  1  0  0  0  0
  8  7  1  0  0  0  0
  9  8  2  0  0  0  0
 10  8  1  0  0  0  0
 11 10  1  0  0  0  0
 12 11  2  0  0  0  0
 13 12  1  0  0  0  0
 13  6  2  0  0  0  0
 14 13  1  0  0  0  0
 15 14  2  0  0  0  0
 16 14  1  0  0  0  0
 17 16  1  0  0  0  0
 18 16  1  0  0  0  0
 19 18  2  0  0  0  0
 20 19  1  0  0  0  0
 21 19  1  0  0  0  0
 22 21  2  0  0  0  0
 23 22  1  0  0  0  0
 23 12  1  0  0  0  0
 23 18  1  0  0  0  0
 24 11  1  0  0  0  0
 24  3  1  0  0  0  0
 24  5  1  0  0  0  0
  1 25  1  0  0  0  0
  1 26  1  0  0  0  0
  1 27  1  0  0  0  0
  2 28  1  0  0  0  0
  2 29  1  0  0  0  0
  7 30  1  0  0  0  0
  9 31  1  0  0  0  0
 10 32  1  0  0  0  0
 17 33  1  0  0  0  0
 17 34  1  0  0  0  0
 17 35  1  0  0  0  0
 20 36  1  0  0  0  0
M  END
>  <energy>
110.69002329981836

$$$$
