CC(C)C#CC1(C(=O)O)CCC23CN4CCC5C2(O)C4C(C(O)C1(C)O)C53F
                    3D

 56 60  0  0  0  0  0  0  0  0999 V2000
   -5.2437    1.7840    2.2422 C   0  0  0  0  0  0  0  0  0  0  0  0
   -4.7988    2.0767    0.8113 C   0  0  0  0  0  0  0  0  0  0  0  0
   -5.7976    1.5083   -0.1956 C   0  0  0  0  0  0  0  0  0  0  0  0
   -3.4546    1.5144    0.5693 C   0  0  0  0  0  0  0  0  0  0  0  0
   -2.3739    1.0275    0.3755 C   0  0  0  0  0  0  0  0  0  0  0  0
   -1.0289    0.3624    0.1337 C   0  0  0  0  0  0  0  0  0  0  0  0
   -1.3920   -1.1239   -0.0072 C   0  0  0  0  0  0  0  0  0  0  0  0
   -1.5676   -1.9002    0.9193 O   0  0  0  0  0  0  0  0  0  0  0  0
   -1.6095   -1.5527   -1.2594 O   0  0  0  0  0  0  0  0  0  0  0  0
   -0.2400    0.5980    1.4946 C   0  0  0  0  0  0  0  0  0  0  0  0
    0.8034   -0.4072    2.0362 C   0  0  0  0  0  0  0  0  0  0  0  0
    1.7290   -0.8220    0.9520 C   0  0  0  0  0  0  0  0  0  0  0  0
    1.6951   -2.6322    0.6206 C   0  0  0  0  0  0  0  0  0  0  0  0
    2.4790   -2.8071   -0.7469 N   0  0  0  0  0  0  0  0  0  0  0  0
    3.9857   -2.7326   -0.8158 C   0  0  0  0  0  0  0  0  0  0  0  0
    4.6895   -1.2327   -0.7056 C   0  0  0  0  0  0  0  0  0  0  0  0
    3.8743   -0.1600    0.1826 C   0  0  0  0  0  0  0  0  0  0  0  0
    3.0832   -1.1525    0.8435 C   0  0  0  0  0  0  0  0  0  0  0  0
    3.7413   -2.0975    1.7128 O   0  0  0  0  0  0  0  0  0  0  0  0
    2.2184   -1.4464   -0.7909 C   0  0  0  0  0  0  0  0  0  0  0  0
    2.1676   -0.0560   -1.4151 C   0  0  0  0  0  0  0  0  0  0  0  0
    0.8300    0.4220   -2.0015 C   0  0  0  0  0  0  0  0  0  0  0  0
    0.3648   -0.6201   -2.8768 O   0  0  0  0  0  0  0  0  0  0  0  0
   -0.4023    1.0475   -1.1986 C   0  0  0  0  0  0  0  0  0  0  0  0
   -0.1765    2.5719   -1.0011 C   0  0  0  0  0  0  0  0  0  0  0  0
   -1.4381    1.0373   -2.2585 O   0  0  0  0  0  0  0  0  0  0  0  0
    2.4374    0.4212   -0.0483 C   0  0  0  0  0  0  0  0  0  0  0  0
    2.2446    1.7095    0.2374 F   0  0  0  0  0  0  0  0  0  0  0  0
   -4.5300    2.1937    2.9651 H   0  0  0  0  0  0  0  0  0  0  0  0
   -6.2204    2.2337    2.4464 H   0  0  0  0  0  0  0  0  0  0  0  0
   -5.3213    0.7069    2.4288 H   0  0  0  0  0  0  0  0  0  0  0  0
   -4.7546    3.1649    0.6783 H   0  0  0  0  0  0  0  0  0  0  0  0
   -6.7918    1.9426   -0.0462 H   0  0  0  0  0  0  0  0  0  0  0  0
   -5.8860    0.4191   -0.1054 H   0  0  0  0  0  0  0  0  0  0  0  0
   -5.4861    1.7302   -1.2227 H   0  0  0  0  0  0  0  0  0  0  0  0
   -1.8158   -2.5076   -1.1687 H   0  0  0  0  0  0  0  0  0  0  0  0
    0.2219    1.5901    1.4748 H   0  0  0  0  0  0  0  0  0  0  0  0
   -0.9764    0.6809    2.3099 H   0  0  0  0  0  0  0  0  0  0  0  0
    0.3007   -1.2649    2.4922 H   0  0  0  0  0  0  0  0  0  0  0  0
    1.3590    0.0795    2.8461 H   0  0  0  0  0  0  0  0  0  0  0  0
    2.0259   -3.2591    1.4592 H   0  0  0  0  0  0  0  0  0  0  0  0
    0.6396   -2.9047    0.4612 H   0  0  0  0  0  0  0  0  0  0  0  0
    4.2872   -3.1343   -1.7953 H   0  0  0  0  0  0  0  0  0  0  0  0
    4.4370   -3.4210   -0.0894 H   0  0  0  0  0  0  0  0  0  0  0  0
    5.6881   -1.3647   -0.2720 H   0  0  0  0  0  0  0  0  0  0  0  0
    4.8340   -0.8317   -1.7165 H   0  0  0  0  0  0  0  0  0  0  0  0
    4.5208    0.4469    0.8235 H   0  0  0  0  0  0  0  0  0  0  0  0
    4.6460   -1.7641    1.8567 H   0  0  0  0  0  0  0  0  0  0  0  0
    1.1047   -1.5298   -0.8587 H   0  0  0  0  0  0  0  0  0  0  0  0
    2.9666    0.1246   -2.1388 H   0  0  0  0  0  0  0  0  0  0  0  0
    1.1197    1.2115   -2.7084 H   0  0  0  0  0  0  0  0  0  0  0  0
   -0.5716   -0.3849   -3.0634 H   0  0  0  0  0  0  0  0  0  0  0  0
   -1.1089    3.0849   -0.7324 H   0  0  0  0  0  0  0  0  0  0  0  0
    0.1349    3.0406   -1.9436 H   0  0  0  0  0  0  0  0  0  0  0  0
    0.5593    2.8254   -0.2425 H   0  0  0  0  0  0  0  0  0  0  0  0
   -2.2023    1.5536   -1.9478 H   0  0  0  0  0  0  0  0  0  0  0  0
  2  1  1  0  0  0  0
  3  2  1  0  0  0  0
  4  2  1  0  0  0  0
  5  4  3  0  0  0  0
  6  5  1  0  0  0  0
  7  6  1  0  0  0  0
  8  7  2  0  0  0  0
  9  7  1  0  0  0  0
 10  6  1  0  0  0  0
 11 10  1  0  0  0  0
 12 11  1  0  0  0  0
 13 12  1  0  0  0  0
 14 13  1  0  0  0  0
 15 14  1  0  0  0  0
 16 15  1  0  0  0  0
 17 16  1  0  0  0  0
 18 17  1  0  0  0  0
 18 12  1  0  0  0  0
 19 18  1  0  0  0  0
 20 18  1  0  0  0  0
 20 14  1  0  0  0  0
 21 20  1  0  0  0  0
 22 21  1  0  0  0  0
 23 22  1  0  0  0  0
 24 22  1  0  0  0  0
 24  6  1  0  0  0  0
 25 24  1  0  0  0  0
 26 24  1  0  0  0  0
 27 21  1  0  0  0  0
 27 17  1  0  0  0  0
 27 12  1  0  0  0  0
 28 27  1  0  0  0  0
  1 29  1  0  0  0  0
  1 30  1  0  0  0  0
  1 31  1  0  0  0  0
  2 32  1  0  0  0  0
  3 33  1  0  0  0  0
  3 34  1  0  0  0  0
  3 35  1  0  0  0  0
  9 36  1  0  0  0  0
 10 37  1  0  0  0  0
 10 38  1  0  0  0  0
 11 39  1  0  0  0  0
 11 40  1  0  0  0  0
 13 41  1  0  0  0  0
 13 42  1  0  0  0  0
 15 43  1  0  0  0  0
 15 44  1  0  0  0  0
 16 45  1  0  0  0  0
 16 46  1  0  0  0  0
 17 47  1  0  0  0  0
 19 48  1  0  0  0  0
 20 49  1  0  0  0  0
 21 50  1  0  0  0  0
 22 51  1  0  0  0  0
 23 52  1  0  0  0  0
 25 53  1  0  0  0  0
 25 54  1  0  0  0  0
 25 55  1  0  0  0  0
 26 56  1  0  0  0  0
M  END
>  <energy>
418.75565255565039

$$$$
