CNC1C2CC3(C(=O)NC4CCCCC4C1(C)C3Br)C2(O)CN
                    3D

 51 54  0  0  0  0  0  0  0  0999 V2000
    1.1434   -3.7230   -1.1150 C   0  0  0  0  0  0  0  0  0  0  0  0
    1.5861   -2.4578   -0.5516 N   0  0  0  0  0  0  0  0  0  0  0  0
    0.6127   -1.3731   -0.7142 C   0  0  0  0  0  0  0  0  0  0  0  0
    1.4416   -0.1890   -1.3436 C   0  0  0  0  0  0  0  0  0  0  0  0
    0.5703    1.0337   -1.2402 C   0  0  0  0  0  0  0  0  0  0  0  0
    1.1721    1.0788    0.3315 C   0  0  0  0  0  0  0  0  0  0  0  0
    0.6202    2.4380    0.7805 C   0  0  0  0  0  0  0  0  0  0  0  0
    1.2776    3.4312    1.0776 O   0  0  0  0  0  0  0  0  0  0  0  0
   -0.7710    2.4831    0.7289 N   0  0  0  0  0  0  0  0  0  0  0  0
   -1.7505    1.3884    1.0116 C   0  0  0  0  0  0  0  0  0  0  0  0
   -3.1721    1.9242    0.7449 C   0  0  0  0  0  0  0  0  0  0  0  0
   -3.6582    1.6457   -0.6682 C   0  0  0  0  0  0  0  0  0  0  0  0
   -3.7596    0.1471   -0.8978 C   0  0  0  0  0  0  0  0  0  0  0  0
   -2.3988   -0.5295   -0.7950 C   0  0  0  0  0  0  0  0  0  0  0  0
   -1.5946   -0.1376    0.4734 C   0  0  0  0  0  0  0  0  0  0  0  0
   -0.1662   -0.9400    0.6394 C   0  0  0  0  0  0  0  0  0  0  0  0
   -0.5313   -2.2029    1.4726 C   0  0  0  0  0  0  0  0  0  0  0  0
    0.7350    0.0332    1.3729 C   0  0  0  0  0  0  0  0  0  0  0  0
    2.0916   -0.6875    2.5442 Br  0  0  0  0  0  0  0  0  0  0  0  0
    2.5042    0.7436   -0.5140 C   0  0  0  0  0  0  0  0  0  0  0  0
    3.0116    1.9112   -1.2521 O   0  0  0  0  0  0  0  0  0  0  0  0
    3.7651   -0.0388   -0.1215 C   0  0  0  0  0  0  0  0  0  0  0  0
    4.6531    0.7481    0.7424 N   0  0  0  0  0  0  0  0  0  0  0  0
    0.9732   -3.6351   -2.1929 H   0  0  0  0  0  0  0  0  0  0  0  0
    0.2291   -4.0867   -0.6375 H   0  0  0  0  0  0  0  0  0  0  0  0
    1.9220   -4.4780   -0.9697 H   0  0  0  0  0  0  0  0  0  0  0  0
    1.8820   -2.5781    0.4162 H   0  0  0  0  0  0  0  0  0  0  0  0
   -0.1352   -1.6771   -1.4550 H   0  0  0  0  0  0  0  0  0  0  0  0
    1.7645   -0.4245   -2.3653 H   0  0  0  0  0  0  0  0  0  0  0  0
   -0.4890    0.9478   -1.4204 H   0  0  0  0  0  0  0  0  0  0  0  0
    0.8506    1.8787   -1.8881 H   0  0  0  0  0  0  0  0  0  0  0  0
   -1.0744    3.4066    1.0249 H   0  0  0  0  0  0  0  0  0  0  0  0
   -1.6912    1.3155    2.1074 H   0  0  0  0  0  0  0  0  0  0  0  0
   -3.8640    1.4477    1.4521 H   0  0  0  0  0  0  0  0  0  0  0  0
   -3.2305    3.0011    0.9447 H   0  0  0  0  0  0  0  0  0  0  0  0
   -4.6468    2.0986   -0.8059 H   0  0  0  0  0  0  0  0  0  0  0  0
   -2.9865    2.1040   -1.4035 H   0  0  0  0  0  0  0  0  0  0  0  0
   -4.4458   -0.2958   -0.1653 H   0  0  0  0  0  0  0  0  0  0  0  0
   -4.1894   -0.0479   -1.8871 H   0  0  0  0  0  0  0  0  0  0  0  0
   -1.8623   -0.3223   -1.7217 H   0  0  0  0  0  0  0  0  0  0  0  0
   -2.5564   -1.6160   -0.7954 H   0  0  0  0  0  0  0  0  0  0  0  0
   -2.2290   -0.6161    1.2412 H   0  0  0  0  0  0  0  0  0  0  0  0
   -1.2513   -2.8261    0.9307 H   0  0  0  0  0  0  0  0  0  0  0  0
   -0.9853   -1.9258    2.4316 H   0  0  0  0  0  0  0  0  0  0  0  0
    0.3225   -2.8396    1.7150 H   0  0  0  0  0  0  0  0  0  0  0  0
    0.1680    0.5020    2.1804 H   0  0  0  0  0  0  0  0  0  0  0  0
    3.1491    2.5929   -0.5670 H   0  0  0  0  0  0  0  0  0  0  0  0
    3.5637   -1.0042    0.3361 H   0  0  0  0  0  0  0  0  0  0  0  0
    4.3287   -0.2798   -1.0320 H   0  0  0  0  0  0  0  0  0  0  0  0
    4.1566    1.0462    1.5800 H   0  0  0  0  0  0  0  0  0  0  0  0
    4.9448    1.5848    0.2396 H   0  0  0  0  0  0  0  0  0  0  0  0
  2  1  1  0  0  0  0
  3  2  1  0  0  0  0
  4  3  1  0  0  0  0
  5  4  1  0  0  0  0
  6  5  1  0  0  0  0
  7  6  1  0  0  0  0
  8  7  2  0  0  0  0
  9  7  1  0  0  0  0
 10  9  1  0  0  0  0
 11 10  1  0  0  0  0
 12 11  1  0  0  0  0
 13 12  1  0  0  0  0
 14 13  1  0  0  0  0
 15 14  1  0  0  0  0
 15 10  1  0  0  0  0
 16 15  1  0  0  0  0
 16  3  1  0  0  0  0
 17 16  1  0  0  0  0
 18 16  1  0  0  0  0
 18  6  1  0  0  0  0
 19 18  1  0  0  0  0
 20  6  1  0  0  0  0
 20  4  1  0  0  0  0
 21 20  1  0  0  0  0
 22 20  1  0  0  0  0
 23 22  1  0  0  0  0
  1 24  1  0  0  0  0
  1 25  1  0  0  0  0
  1 26  1  0  0  0  0
  2 27  1  0  0  0  0
  3 28  1  0  0  0  0
  4 29  1  0  0  0  0
  5 30  1  0  0  0  0
  5 31  1  0  0  0  0
  9 32  1  0  0  0  0
 10 33  1  0  0  0  0
 11 34  1  0  0  0  0
 11 35  1  0  0  0  0
 12 36  1  0  0  0  0
 12 37  1  0  0  0  0
 13 38  1  0  0  0  0
 13 39  1  0  0  0  0
 14 40  1  0  0  0  0
 14 41  1  0  0  0  0
 15 42  1  0  0  0  0
 17 43  1  0  0  0  0
 17 44  1  0  0  0  0
 17 45  1  0  0  0  0
 18 46  1  0  0  0  0
 21 47  1  0  0  0  0
 22 48  1  0  0  0  0
 22 49  1  0  0  0  0
 23 50  1  0  0  0  0
 23 51  1  0  0  0  0
M  END
>  <energy>
118.72336603450306

$$$$
