CC(C)(C)OC(=O)NC1C2C(CO)C3(O)CNC4CC1C43C2CBr
                    3D

 51 54  0  0  0  0  0  0  0  0999 V2000
   -4.8474   -0.5391   -0.6938 C   0  0  0  0  0  0  0  0  0  0  0  0
   -3.8125    0.3110    0.0495 C   0  0  0  0  0  0  0  0  0  0  0  0
   -4.1790    0.5110    1.5240 C   0  0  0  0  0  0  0  0  0  0  0  0
   -3.7317    1.6880   -0.6289 C   0  0  0  0  0  0  0  0  0  0  0  0
   -2.4765   -0.2342   -0.0784 O   0  0  0  0  0  0  0  0  0  0  0  0
   -2.1601   -1.4469    0.4296 C   0  0  0  0  0  0  0  0  0  0  0  0
   -2.9339   -2.2346    0.9528 O   0  0  0  0  0  0  0  0  0  0  0  0
   -0.8254   -1.7222    0.3275 N   0  0  0  0  0  0  0  0  0  0  0  0
    0.1371   -0.9123   -0.3886 C   0  0  0  0  0  0  0  0  0  0  0  0
    0.3976    0.5436    0.2106 C   0  0  0  0  0  0  0  0  0  0  0  0
    1.3842    1.4286   -0.6722 C   0  0  0  0  0  0  0  0  0  0  0  0
    0.7293    1.9115   -1.9578 C   0  0  0  0  0  0  0  0  0  0  0  0
    1.6849    2.6542   -2.7091 O   0  0  0  0  0  0  0  0  0  0  0  0
    2.5881    0.4734   -0.8363 C   0  0  0  0  0  0  0  0  0  0  0  0
    2.5542   -0.0884   -2.1572 O   0  0  0  0  0  0  0  0  0  0  0  0
    4.0478    0.6574   -0.4474 C   0  0  0  0  0  0  0  0  0  0  0  0
    4.4466   -0.7745   -0.1478 N   0  0  0  0  0  0  0  0  0  0  0  0
    3.4120   -1.2849    0.7714 C   0  0  0  0  0  0  0  0  0  0  0  0
    2.6066   -2.5445    0.3760 C   0  0  0  0  0  0  0  0  0  0  0  0
    1.5015   -1.6838   -0.3786 C   0  0  0  0  0  0  0  0  0  0  0  0
    2.2273   -0.5119    0.2897 C   0  0  0  0  0  0  0  0  0  0  0  0
    1.3626    0.2144    1.3251 C   0  0  0  0  0  0  0  0  0  0  0  0
    0.8052   -0.6009    2.4822 C   0  0  0  0  0  0  0  0  0  0  0  0
    1.8426   -0.2487    4.1067 Br  0  0  0  0  0  0  0  0  0  0  0  0
   -4.5236   -0.7337   -1.7226 H   0  0  0  0  0  0  0  0  0  0  0  0
   -4.9948   -1.5144   -0.2202 H   0  0  0  0  0  0  0  0  0  0  0  0
   -5.8218   -0.0391   -0.7257 H   0  0  0  0  0  0  0  0  0  0  0  0
   -4.3069   -0.4432    2.0444 H   0  0  0  0  0  0  0  0  0  0  0  0
   -3.3830    1.0504    2.0505 H   0  0  0  0  0  0  0  0  0  0  0  0
   -5.1121    1.0740    1.6318 H   0  0  0  0  0  0  0  0  0  0  0  0
   -2.9530    2.3058   -0.1669 H   0  0  0  0  0  0  0  0  0  0  0  0
   -3.4566    1.5845   -1.6848 H   0  0  0  0  0  0  0  0  0  0  0  0
   -4.6823    2.2270   -0.5708 H   0  0  0  0  0  0  0  0  0  0  0  0
   -0.6094   -2.6888    0.5411 H   0  0  0  0  0  0  0  0  0  0  0  0
   -0.2355   -0.8148   -1.4149 H   0  0  0  0  0  0  0  0  0  0  0  0
   -0.4904    1.0932    0.5256 H   0  0  0  0  0  0  0  0  0  0  0  0
    1.7069    2.3100   -0.1002 H   0  0  0  0  0  0  0  0  0  0  0  0
   -0.1303    2.5556   -1.7425 H   0  0  0  0  0  0  0  0  0  0  0  0
    0.3726    1.0896   -2.5843 H   0  0  0  0  0  0  0  0  0  0  0  0
    1.6369    3.5778   -2.4045 H   0  0  0  0  0  0  0  0  0  0  0  0
    2.8064    0.6265   -2.7738 H   0  0  0  0  0  0  0  0  0  0  0  0
    4.1785    1.2800    0.4447 H   0  0  0  0  0  0  0  0  0  0  0  0
    4.6609    1.0430   -1.2672 H   0  0  0  0  0  0  0  0  0  0  0  0
    5.3937   -0.7843    0.2275 H   0  0  0  0  0  0  0  0  0  0  0  0
    3.6722   -1.1979    1.8283 H   0  0  0  0  0  0  0  0  0  0  0  0
    2.2032   -3.1132    1.2210 H   0  0  0  0  0  0  0  0  0  0  0  0
    3.1512   -3.2500   -0.2628 H   0  0  0  0  0  0  0  0  0  0  0  0
    1.6592   -1.9400   -1.4359 H   0  0  0  0  0  0  0  0  0  0  0  0
    1.8598    1.1135    1.7113 H   0  0  0  0  0  0  0  0  0  0  0  0
    0.8492   -1.6828    2.3583 H   0  0  0  0  0  0  0  0  0  0  0  0
   -0.2121   -0.2949    2.7433 H   0  0  0  0  0  0  0  0  0  0  0  0
  2  1  1  0  0  0  0
  3  2  1  0  0  0  0
  4  2  1  0  0  0  0
  5  2  1  0  0  0  0
  6  5  1  0  0  0  0
  7  6  2  0  0  0  0
  8  6  1  0  0  0  0
  9  8  1  0  0  0  0
 10  9  1  0  0  0  0
 11 10  1  0  0  0  0
 12 11  1  0  0  0  0
 13 12  1  0  0  0  0
 14 11  1  0  0  0  0
 15 14  1  0  0  0  0
 16 14  1  0  0  0  0
 17 16  1  0  0  0  0
 18 17  1  0  0  0  0
 19 18  1  0  0  0  0
 20 19  1  0  0  0  0
 20  9  1  0  0  0  0
 21 20  1  0  0  0  0
 21 18  1  0  0  0  0
 21 14  1  0  0  0  0
 22 21  1  0  0  0  0
 22 10  1  0  0  0  0
 23 22  1  0  0  0  0
 24 23  1  0  0  0  0
  1 25  1  0  0  0  0
  1 26  1  0  0  0  0
  1 27  1  0  0  0  0
  3 28  1  0  0  0  0
  3 29  1  0  0  0  0
  3 30  1  0  0  0  0
  4 31  1  0  0  0  0
  4 32  1  0  0  0  0
  4 33  1  0  0  0  0
  8 34  1  0  0  0  0
  9 35  1  0  0  0  0
 10 36  1  0  0  0  0
 11 37  1  0  0  0  0
 12 38  1  0  0  0  0
 12 39  1  0  0  0  0
 13 40  1  0  0  0  0
 15 41  1  0  0  0  0
 16 42  1  0  0  0  0
 16 43  1  0  0  0  0
 17 44  1  0  0  0  0
 18 45  1  0  0  0  0
 19 46  1  0  0  0  0
 19 47  1  0  0  0  0
 20 48  1  0  0  0  0
 22 49  1  0  0  0  0
 23 50  1  0  0  0  0
 23 51  1  0  0  0  0
M  END
>  <energy>
77.146857863951467

$$$$
