CCN1C2CC3C4C5C(CC(C#N)N4CCN)C(O)C1C3(CO)C52
                    3D

 52 56  0  0  0  0  0  0  0  0999 V2000
    4.8949    1.0451    0.9102 C   0  0  0  0  0  0  0  0  0  0  0  0
    3.6212    1.6433    0.3265 C   0  0  0  0  0  0  0  0  0  0  0  0
    2.7018    0.6120   -0.1632 N   0  0  0  0  0  0  0  0  0  0  0  0
    1.6082    1.1556   -1.0813 C   0  0  0  0  0  0  0  0  0  0  0  0
    0.7783    0.3043   -2.0555 C   0  0  0  0  0  0  0  0  0  0  0  0
    0.0226   -0.7037   -1.1520 C   0  0  0  0  0  0  0  0  0  0  0  0
   -1.1720   -0.3306   -0.2771 C   0  0  0  0  0  0  0  0  0  0  0  0
   -0.6455    0.9099    0.3920 C   0  0  0  0  0  0  0  0  0  0  0  0
   -0.5781    0.6941    1.9090 C   0  0  0  0  0  0  0  0  0  0  0  0
   -1.8629   -0.1039    2.2765 C   0  0  0  0  0  0  0  0  0  0  0  0
   -3.0362   -0.0637    1.1554 C   0  0  0  0  0  0  0  0  0  0  0  0
   -3.9673    1.0577    1.4448 C   0  0  0  0  0  0  0  0  0  0  0  0
   -4.7265    1.9042    1.6808 N   0  0  0  0  0  0  0  0  0  0  0  0
   -2.5768   -0.0260   -0.2970 N   0  0  0  0  0  0  0  0  0  0  0  0
   -3.3960   -0.8369   -1.2023 C   0  0  0  0  0  0  0  0  0  0  0  0
   -3.3847   -0.2474   -2.6319 C   0  0  0  0  0  0  0  0  0  0  0  0
   -4.2624   -0.9796   -3.5516 N   0  0  0  0  0  0  0  0  0  0  0  0
    0.9174    0.0565    2.2979 C   0  0  0  0  0  0  0  0  0  0  0  0
    1.5610    0.8909    3.2619 O   0  0  0  0  0  0  0  0  0  0  0  0
    2.0097   -0.2458    0.9964 C   0  0  0  0  0  0  0  0  0  0  0  0
    1.0402   -0.8660    0.0455 C   0  0  0  0  0  0  0  0  0  0  0  0
    2.0105   -1.9260   -0.6076 C   0  0  0  0  0  0  0  0  0  0  0  0
    2.1491   -3.0003    0.3390 O   0  0  0  0  0  0  0  0  0  0  0  0
    0.7705    0.8861    0.0464 C   0  0  0  0  0  0  0  0  0  0  0  0
    5.5792    1.8463    1.2081 H   0  0  0  0  0  0  0  0  0  0  0  0
    4.6926    0.4373    1.7975 H   0  0  0  0  0  0  0  0  0  0  0  0
    5.4145    0.4196    0.1732 H   0  0  0  0  0  0  0  0  0  0  0  0
    3.9219    2.2771   -0.5168 H   0  0  0  0  0  0  0  0  0  0  0  0
    3.1522    2.3035    1.0646 H   0  0  0  0  0  0  0  0  0  0  0  0
    1.7265    2.2002   -1.3745 H   0  0  0  0  0  0  0  0  0  0  0  0
    0.0593    0.9149   -2.6162 H   0  0  0  0  0  0  0  0  0  0  0  0
    1.4354   -0.1975   -2.7715 H   0  0  0  0  0  0  0  0  0  0  0  0
   -0.2314   -1.6199   -1.6919 H   0  0  0  0  0  0  0  0  0  0  0  0
   -1.1743   -1.2424    0.3453 H   0  0  0  0  0  0  0  0  0  0  0  0
   -1.1210    1.8551    0.1047 H   0  0  0  0  0  0  0  0  0  0  0  0
   -0.6462    1.6771    2.3978 H   0  0  0  0  0  0  0  0  0  0  0  0
   -2.2501    0.2419    3.2461 H   0  0  0  0  0  0  0  0  0  0  0  0
   -1.5833   -1.1558    2.4227 H   0  0  0  0  0  0  0  0  0  0  0  0
   -3.5878   -1.0016    1.3075 H   0  0  0  0  0  0  0  0  0  0  0  0
   -3.0681   -1.8841   -1.2107 H   0  0  0  0  0  0  0  0  0  0  0  0
   -4.4399   -0.8323   -0.8616 H   0  0  0  0  0  0  0  0  0  0  0  0
   -2.3681   -0.2607   -3.0382 H   0  0  0  0  0  0  0  0  0  0  0  0
   -3.7138    0.7959   -2.6031 H   0  0  0  0  0  0  0  0  0  0  0  0
   -4.1993   -0.5513   -4.4761 H   0  0  0  0  0  0  0  0  0  0  0  0
   -5.2349   -0.8477   -3.2585 H   0  0  0  0  0  0  0  0  0  0  0  0
    0.7400   -0.9121    2.7849 H   0  0  0  0  0  0  0  0  0  0  0  0
    2.4420    0.5075    3.4337 H   0  0  0  0  0  0  0  0  0  0  0  0
    2.7950   -0.8785    1.4314 H   0  0  0  0  0  0  0  0  0  0  0  0
    3.0236   -1.5824   -0.8444 H   0  0  0  0  0  0  0  0  0  0  0  0
    1.6446   -2.3904   -1.5251 H   0  0  0  0  0  0  0  0  0  0  0  0
    1.3919   -3.5995    0.2209 H   0  0  0  0  0  0  0  0  0  0  0  0
    1.1223    1.6499    0.7877 H   0  0  0  0  0  0  0  0  0  0  0  0
  2  1  1  0  0  0  0
  3  2  1  0  0  0  0
  4  3  1  0  0  0  0
  5  4  1  0  0  0  0
  6  5  1  0  0  0  0
  7  6  1  0  0  0  0
  8  7  1  0  0  0  0
  9  8  1  0  0  0  0
 10  9  1  0  0  0  0
 11 10  1  0  0  0  0
 12 11  1  0  0  0  0
 13 12  3  0  0  0  0
 14 11  1  0  0  0  0
 14  7  1  0  0  0  0
 15 14  1  0  0  0  0
 16 15  1  0  0  0  0
 17 16  1  0  0  0  0
 18  9  1  0  0  0  0
 19 18  1  0  0  0  0
 20 18  1  0  0  0  0
 20  3  1  0  0  0  0
 21 20  1  0  0  0  0
 21  6  1  0  0  0  0
 22 21  1  0  0  0  0
 23 22  1  0  0  0  0
 24 21  1  0  0  0  0
 24  8  1  0  0  0  0
 24  4  1  0  0  0  0
  1 25  1  0  0  0  0
  1 26  1  0  0  0  0
  1 27  1  0  0  0  0
  2 28  1  0  0  0  0
  2 29  1  0  0  0  0
  4 30  1  0  0  0  0
  5 31  1  0  0  0  0
  5 32  1  0  0  0  0
  6 33  1  0  0  0  0
  7 34  1  0  0  0  0
  8 35  1  0  0  0  0
  9 36  1  0  0  0  0
 10 37  1  0  0  0  0
 10 38  1  0  0  0  0
 11 39  1  0  0  0  0
 15 40  1  0  0  0  0
 15 41  1  0  0  0  0
 16 42  1  0  0  0  0
 16 43  1  0  0  0  0
 17 44  1  0  0  0  0
 17 45  1  0  0  0  0
 18 46  1  0  0  0  0
 19 47  1  0  0  0  0
 20 48  1  0  0  0  0
 22 49  1  0  0  0  0
 22 50  1  0  0  0  0
 23 51  1  0  0  0  0
 24 52  1  0  0  0  0
M  END
>  <energy>
389.09544045517663

$$$$
