C=CSC1C2(OCOS1(=O)=O)OC1(C)C(O)(C(C)(C)C)CC21O
                    3D

 45 47  0  0  0  0  0  0  0  0999 V2000
    1.7236   -3.6350    1.7237 C   0  0  0  0  0  0  0  0  0  0  0  0
    2.8053   -3.1471    1.1094 C   0  0  0  0  0  0  0  0  0  0  0  0
    2.7545   -2.5949   -0.5277 S   0  0  0  0  0  0  0  0  0  0  0  0
    2.6145   -0.7633   -0.2450 C   0  0  0  0  0  0  0  0  0  0  0  0
    1.2149   -0.2255   -0.5772 C   0  0  0  0  0  0  0  0  0  0  0  0
    0.9187   -0.3350   -1.9915 O   0  0  0  0  0  0  0  0  0  0  0  0
    1.7977    0.3044   -2.9011 C   0  0  0  0  0  0  0  0  0  0  0  0
    3.1257   -0.1091   -2.7157 O   0  0  0  0  0  0  0  0  0  0  0  0
    3.7597    0.2100   -1.2596 S   0  0  0  0  0  0  0  0  0  0  0  0
    3.5660    1.6287   -1.0092 O   0  0  0  0  0  0  0  0  0  0  0  0
    5.0872   -0.3633   -1.2024 O   0  0  0  0  0  0  0  0  0  0  0  0
    0.1972   -0.9338    0.2022 O   0  0  0  0  0  0  0  0  0  0  0  0
   -0.1525    0.2517    0.9422 C   0  0  0  0  0  0  0  0  0  0  0  0
    0.0762    0.0450    2.4227 C   0  0  0  0  0  0  0  0  0  0  0  0
   -1.3589    1.1552    0.4652 C   0  0  0  0  0  0  0  0  0  0  0  0
   -1.8051    2.0962    1.4906 O   0  0  0  0  0  0  0  0  0  0  0  0
   -2.6272    0.4798   -0.1554 C   0  0  0  0  0  0  0  0  0  0  0  0
   -3.6496    1.5748   -0.5294 C   0  0  0  0  0  0  0  0  0  0  0  0
   -2.3426   -0.3361   -1.4289 C   0  0  0  0  0  0  0  0  0  0  0  0
   -3.2686   -0.4720    0.8734 C   0  0  0  0  0  0  0  0  0  0  0  0
   -0.3512    1.8615   -0.5055 C   0  0  0  0  0  0  0  0  0  0  0  0
    0.8254    1.1120    0.1345 C   0  0  0  0  0  0  0  0  0  0  0  0
    1.8080    1.8675    0.8692 O   0  0  0  0  0  0  0  0  0  0  0  0
    0.7570   -3.6989    1.2321 H   0  0  0  0  0  0  0  0  0  0  0  0
    1.7857   -3.9883    2.7483 H   0  0  0  0  0  0  0  0  0  0  0  0
    3.7578   -3.1098    1.6332 H   0  0  0  0  0  0  0  0  0  0  0  0
    2.8956   -0.5442    0.7908 H   0  0  0  0  0  0  0  0  0  0  0  0
    1.4900    0.0285   -3.9137 H   0  0  0  0  0  0  0  0  0  0  0  0
    1.7066    1.3931   -2.8164 H   0  0  0  0  0  0  0  0  0  0  0  0
   -0.7287   -0.5554    2.8574 H   0  0  0  0  0  0  0  0  0  0  0  0
    0.1137    0.9977    2.9620 H   0  0  0  0  0  0  0  0  0  0  0  0
    1.0208   -0.4733    2.6115 H   0  0  0  0  0  0  0  0  0  0  0  0
   -2.1584    1.5580    2.2194 H   0  0  0  0  0  0  0  0  0  0  0  0
   -3.2073    2.3134   -1.2067 H   0  0  0  0  0  0  0  0  0  0  0  0
   -4.5278    1.1467   -1.0248 H   0  0  0  0  0  0  0  0  0  0  0  0
   -4.0118    2.1122    0.3537 H   0  0  0  0  0  0  0  0  0  0  0  0
   -1.6794   -1.1828   -1.2439 H   0  0  0  0  0  0  0  0  0  0  0  0
   -1.9076    0.2713   -2.2260 H   0  0  0  0  0  0  0  0  0  0  0  0
   -3.2717   -0.7576   -1.8321 H   0  0  0  0  0  0  0  0  0  0  0  0
   -3.5375    0.0419    1.8012 H   0  0  0  0  0  0  0  0  0  0  0  0
   -4.1860   -0.9200    0.4747 H   0  0  0  0  0  0  0  0  0  0  0  0
   -2.5896   -1.2902    1.1360 H   0  0  0  0  0  0  0  0  0  0  0  0
   -0.4958    1.7043   -1.5758 H   0  0  0  0  0  0  0  0  0  0  0  0
   -0.2972    2.9482   -0.3636 H   0  0  0  0  0  0  0  0  0  0  0  0
    2.3526    2.3332    0.1980 H   0  0  0  0  0  0  0  0  0  0  0  0
  2  1  2  0  0  0  0
  3  2  1  0  0  0  0
  4  3  1  0  0  0  0
  5  4  1  0  0  0  0
  6  5  1  0  0  0  0
  7  6  1  0  0  0  0
  8  7  1  0  0  0  0
  9  8  1  0  0  0  0
  9  4  1  0  0  0  0
 10  9  2  0  0  0  0
 11  9  2  0  0  0  0
 12  5  1  0  0  0  0
 13 12  1  0  0  0  0
 14 13  1  0  0  0  0
 15 13  1  0  0  0  0
 16 15  1  0  0  0  0
 17 15  1  0  0  0  0
 18 17  1  0  0  0  0
 19 17  1  0  0  0  0
 20 17  1  0  0  0  0
 21 15  1  0  0  0  0
 22 21  1  0  0  0  0
 22  5  1  0  0  0  0
 22 13  1  0  0  0  0
 23 22  1  0  0  0  0
  1 24  1  0  0  0  0
  1 25  1  0  0  0  0
  2 26  1  0  0  0  0
  4 27  1  0  0  0  0
  7 28  1  0  0  0  0
  7 29  1  0  0  0  0
 14 30  1  0  0  0  0
 14 31  1  0  0  0  0
 14 32  1  0  0  0  0
 16 33  1  0  0  0  0
 18 34  1  0  0  0  0
 18 35  1  0  0  0  0
 18 36  1  0  0  0  0
 19 37  1  0  0  0  0
 19 38  1  0  0  0  0
 19 39  1  0  0  0  0
 20 40  1  0  0  0  0
 20 41  1  0  0  0  0
 20 42  1  0  0  0  0
 21 43  1  0  0  0  0
 21 44  1  0  0  0  0
 23 45  1  0  0  0  0
M  END
>  <energy>
34.11385032302271

$$$$
