CN(C)n1c2c3c(=O)c(=O)nc1onc-2c1c([nH]c(=N)n1C)n3O
                    3D

 36 39  0  0  0  0  0  0  0  0999 V2000
   -3.8243   -0.0551    1.0655 C   0  0  0  0  0  0  0  0  0  0  0  0
   -2.9477    0.5859    0.0810 N   0  0  0  0  0  0  0  0  0  0  0  0
   -2.3896    1.8331    0.6065 C   0  0  0  0  0  0  0  0  0  0  0  0
   -1.9898   -0.3685   -0.3701 N   0  0  0  0  0  0  0  0  0  0  0  0
   -0.7140   -0.4918    0.1241 C   0  0  0  0  0  0  0  0  0  0  0  0
   -0.0980   -1.6849    0.3061 C   0  0  0  0  0  0  0  0  0  0  0  0
   -0.8150   -2.9141   -0.2208 C   0  0  0  0  0  0  0  0  0  0  0  0
   -0.4520   -4.0311    0.1359 O   0  0  0  0  0  0  0  0  0  0  0  0
   -1.9397   -2.7271   -1.3304 C   0  0  0  0  0  0  0  0  0  0  0  0
   -2.9024   -3.4834   -1.2789 O   0  0  0  0  0  0  0  0  0  0  0  0
   -1.8361   -1.7159   -2.2918 N   0  0  0  0  0  0  0  0  0  0  0  0
   -1.8808   -0.5396   -1.7359 C   0  0  0  0  0  0  0  0  0  0  0  0
   -1.3484    0.5655   -2.3667 O   0  0  0  0  0  0  0  0  0  0  0  0
   -0.0701    0.9949   -1.7559 N   0  0  0  0  0  0  0  0  0  0  0  0
    0.2496    0.4327   -0.6162 C   0  0  0  0  0  0  0  0  0  0  0  0
    1.5897    0.4971    0.0009 C   0  0  0  0  0  0  0  0  0  0  0  0
    2.0254   -0.6304    0.6103 C   0  0  0  0  0  0  0  0  0  0  0  0
    3.3221   -0.3612    0.9917 N   0  0  0  0  0  0  0  0  0  0  0  0
    3.7402    0.8839    0.5645 C   0  0  0  0  0  0  0  0  0  0  0  0
    4.9211    1.3529    0.7163 N   0  0  0  0  0  0  0  0  0  0  0  0
    2.6131    1.4392   -0.0575 N   0  0  0  0  0  0  0  0  0  0  0  0
    2.6226    2.6667   -0.8115 C   0  0  0  0  0  0  0  0  0  0  0  0
    1.2523   -1.7741    0.6698 N   0  0  0  0  0  0  0  0  0  0  0  0
    1.7980   -2.9276    1.2350 O   0  0  0  0  0  0  0  0  0  0  0  0
   -4.6308    0.6254    1.3628 H   0  0  0  0  0  0  0  0  0  0  0  0
   -4.3037   -0.9421    0.6388 H   0  0  0  0  0  0  0  0  0  0  0  0
   -3.2785   -0.3560    1.9655 H   0  0  0  0  0  0  0  0  0  0  0  0
   -1.7856    2.3504   -0.1443 H   0  0  0  0  0  0  0  0  0  0  0  0
   -1.7865    1.6796    1.5090 H   0  0  0  0  0  0  0  0  0  0  0  0
   -3.2038    2.5219    0.8638 H   0  0  0  0  0  0  0  0  0  0  0  0
    3.9391   -1.0632    1.3654 H   0  0  0  0  0  0  0  0  0  0  0  0
    4.9802    2.2876    0.3060 H   0  0  0  0  0  0  0  0  0  0  0  0
    2.7849    3.5190   -0.1422 H   0  0  0  0  0  0  0  0  0  0  0  0
    3.4299    2.6501   -1.5512 H   0  0  0  0  0  0  0  0  0  0  0  0
    1.6864    2.8454   -1.3454 H   0  0  0  0  0  0  0  0  0  0  0  0
    1.2420   -3.6650    0.9000 H   0  0  0  0  0  0  0  0  0  0  0  0
  2  1  1  0  0  0  0
  3  2  1  0  0  0  0
  4  2  1  0  0  0  0
  5  4  1  0  0  0  0
  6  5  2  0  0  0  0
  7  6  1  0  0  0  0
  8  7  2  0  0  0  0
  9  7  1  0  0  0  0
 10  9  2  0  0  0  0
 11  9  1  0  0  0  0
 12 11  2  0  0  0  0
 12  4  1  0  0  0  0
 13 12  1  0  0  0  0
 14 13  1  0  0  0  0
 15 14  2  0  0  0  0
 15  5  1  0  0  0  0
 16 15  1  0  0  0  0
 17 16  2  0  0  0  0
 18 17  1  0  0  0  0
 19 18  1  0  0  0  0
 20 19  2  0  0  0  0
 21 19  1  0  0  0  0
 21 16  1  0  0  0  0
 22 21  1  0  0  0  0
 23 17  1  0  0  0  0
 23  6  1  0  0  0  0
 24 23  1  0  0  0  0
  1 25  1  0  0  0  0
  1 26  1  0  0  0  0
  1 27  1  0  0  0  0
  3 28  1  0  0  0  0
  3 29  1  0  0  0  0
  3 30  1  0  0  0  0
 18 31  1  0  0  0  0
 20 32  1  0  0  0  0
 22 33  1  0  0  0  0
 22 34  1  0  0  0  0
 22 35  1  0  0  0  0
 24 36  1  0  0  0  0
M  END
>  <energy>
187.59069897773858

$$$$
