CC[n+]1cc2c(=NC)[nH][nH]c2c2c3[n+](ccc21)C1=C2CCC(=O)N=c4c-3c[nH]c4=C2CCC1
                    3D

 58 64  0  0  0  0  0  0  0  0999 V2000
   -4.9255    2.0648    0.6242 C   0  0  0  0  0  0  0  0  0  0  0  0
   -4.5075    1.0524    1.6796 C   0  0  0  0  0  0  0  0  0  0  0  0
   -3.4626    0.1502    1.0997 N   0  3  0  0  0  0  0  0  0  0  0  0
   -3.8471   -1.1148    0.7626 C   0  0  0  0  0  0  0  0  0  0  0  0
   -2.9447   -1.9244    0.1226 C   0  0  0  0  0  0  0  0  0  0  0  0
   -2.8985   -3.3927   -0.0101 C   0  0  0  0  0  0  0  0  0  0  0  0
   -3.7780   -4.0872    0.6062 N   0  0  0  0  0  0  0  0  0  0  0  0
   -3.5384   -5.5201    0.7235 C   0  0  0  0  0  0  0  0  0  0  0  0
   -1.7388   -3.6710   -0.7181 N   0  0  0  0  0  0  0  0  0  0  0  0
   -0.9242   -2.5574   -0.7216 N   0  0  0  0  0  0  0  0  0  0  0  0
   -1.6974   -1.4647   -0.2945 C   0  0  0  0  0  0  0  0  0  0  0  0
   -1.2905   -0.1866    0.0707 C   0  0  0  0  0  0  0  0  0  0  0  0
   -0.0144    0.3350   -0.2361 C   0  0  0  0  0  0  0  0  0  0  0  0
    0.5860    1.2649    0.6028 N   0  3  0  0  0  0  0  0  0  0  0  0
   -0.2422    1.9697    1.4250 C   0  0  0  0  0  0  0  0  0  0  0  0
   -1.6092    1.6930    1.5115 C   0  0  0  0  0  0  0  0  0  0  0  0
   -2.1611    0.5707    0.8918 C   0  0  0  0  0  0  0  0  0  0  0  0
    2.0216    1.5688    0.6588 C   0  0  0  0  0  0  0  0  0  0  0  0
    2.9447    0.7545    0.0805 C   0  0  0  0  0  0  0  0  0  0  0  0
    3.8573   -0.2492    0.7592 C   0  0  0  0  0  0  0  0  0  0  0  0
    3.7600   -1.7303    0.3438 C   0  0  0  0  0  0  0  0  0  0  0  0
    3.3578   -1.9705   -1.1034 C   0  0  0  0  0  0  0  0  0  0  0  0
    4.1331   -2.3135   -1.9786 O   0  0  0  0  0  0  0  0  0  0  0  0
    2.0234   -1.6951   -1.2812 N   0  0  0  0  0  0  0  0  0  0  0  0
    1.8078   -0.5286   -1.7656 C   0  0  0  0  0  0  0  0  0  0  0  0
    0.5074    0.1576   -1.6115 C   0  0  0  0  0  0  0  0  0  0  0  0
    0.5282    1.1427   -2.5452 C   0  0  0  0  0  0  0  0  0  0  0  0
    1.7978    1.2971   -3.1160 N   0  0  0  0  0  0  0  0  0  0  0  0
    2.6602    0.5973   -2.2831 C   0  0  0  0  0  0  0  0  0  0  0  0
    3.3795    1.1776   -1.2768 C   0  0  0  0  0  0  0  0  0  0  0  0
    3.9868    2.5660   -1.3203 C   0  0  0  0  0  0  0  0  0  0  0  0
    3.7676    3.3394   -0.0089 C   0  0  0  0  0  0  0  0  0  0  0  0
    2.3928    3.0632    0.6338 C   0  0  0  0  0  0  0  0  0  0  0  0
   -4.1211    2.7640    0.3797 H   0  0  0  0  0  0  0  0  0  0  0  0
   -5.7833    2.6507    0.9783 H   0  0  0  0  0  0  0  0  0  0  0  0
   -5.2068    1.5579   -0.3040 H   0  0  0  0  0  0  0  0  0  0  0  0
   -5.3722    0.4546    1.9863 H   0  0  0  0  0  0  0  0  0  0  0  0
   -4.1109    1.5273    2.5855 H   0  0  0  0  0  0  0  0  0  0  0  0
   -4.8186   -1.4871    1.0764 H   0  0  0  0  0  0  0  0  0  0  0  0
   -3.7986   -6.0546   -0.1962 H   0  0  0  0  0  0  0  0  0  0  0  0
   -4.1747   -5.9034    1.5295 H   0  0  0  0  0  0  0  0  0  0  0  0
   -2.4966   -5.7380    1.0104 H   0  0  0  0  0  0  0  0  0  0  0  0
   -1.3227   -4.6065   -0.6907 H   0  0  0  0  0  0  0  0  0  0  0  0
   -0.1409   -2.4980   -1.3804 H   0  0  0  0  0  0  0  0  0  0  0  0
    0.1871    2.7794    2.0106 H   0  0  0  0  0  0  0  0  0  0  0  0
   -2.1985    2.3491    2.1538 H   0  0  0  0  0  0  0  0  0  0  0  0
    3.7254   -0.1835    1.8478 H   0  0  0  0  0  0  0  0  0  0  0  0
    4.8938    0.0734    0.5836 H   0  0  0  0  0  0  0  0  0  0  0  0
    4.7238   -2.2160    0.5127 H   0  0  0  0  0  0  0  0  0  0  0  0
    3.0342   -2.2567    0.9774 H   0  0  0  0  0  0  0  0  0  0  0  0
   -0.1457    1.9919   -2.6506 H   0  0  0  0  0  0  0  0  0  0  0  0
    2.0632    2.2471   -3.3795 H   0  0  0  0  0  0  0  0  0  0  0  0
    3.5770    3.1541   -2.1483 H   0  0  0  0  0  0  0  0  0  0  0  0
    5.0704    2.4833   -1.5010 H   0  0  0  0  0  0  0  0  0  0  0  0
    4.5511    3.0580    0.7095 H   0  0  0  0  0  0  0  0  0  0  0  0
    3.8902    4.4152   -0.1833 H   0  0  0  0  0  0  0  0  0  0  0  0
    2.4217    3.4409    1.6668 H   0  0  0  0  0  0  0  0  0  0  0  0
    1.6206    3.6384    0.1006 H   0  0  0  0  0  0  0  0  0  0  0  0
  2  1  1  0  0  0  0
  3  2  1  0  0  0  0
  4  3  2  0  0  0  0
  5  4  1  0  0  0  0
  6  5  1  0  0  0  0
  7  6  2  0  0  0  0
  8  7  1  0  0  0  0
  9  6  1  0  0  0  0
 10  9  1  0  0  0  0
 11 10  1  0  0  0  0
 11  5  2  0  0  0  0
 12 11  1  0  0  0  0
 13 12  2  0  0  0  0
 14 13  1  0  0  0  0
 15 14  2  0  0  0  0
 16 15  1  0  0  0  0
 17 16  2  0  0  0  0
 17 12  1  0  0  0  0
 17  3  1  0  0  0  0
 18 14  1  0  0  0  0
 19 18  2  0  0  0  0
 20 19  1  0  0  0  0
 21 20  1  0  0  0  0
 22 21  1  0  0  0  0
 23 22  2  0  0  0  0
 24 22  1  0  0  0  0
 25 24  2  0  0  0  0
 26 25  1  0  0  0  0
 26 13  1  0  0  0  0
 27 26  2  0  0  0  0
 28 27  1  0  0  0  0
 29 28  1  0  0  0  0
 29 25  1  0  0  0  0
 30 29  2  0  0  0  0
 30 19  1  0  0  0  0
 31 30  1  0  0  0  0
 32 31  1  0  0  0  0
 33 32  1  0  0  0  0
 33 18  1  0  0  0  0
  1 34  1  0  0  0  0
  1 35  1  0  0  0  0
  1 36  1  0  0  0  0
  2 37  1  0  0  0  0
  2 38  1  0  0  0  0
  4 39  1  0  0  0  0
  8 40  1  0  0  0  0
  8 41  1  0  0  0  0
  8 42  1  0  0  0  0
  9 43  1  0  0  0  0
 10 44  1  0  0  0  0
 15 45  1  0  0  0  0
 16 46  1  0  0  0  0
 20 47  1  0  0  0  0
 20 48  1  0  0  0  0
 21 49  1  0  0  0  0
 21 50  1  0  0  0  0
 27 51  1  0  0  0  0
 28 52  1  0  0  0  0
 31 53  1  0  0  0  0
 31 54  1  0  0  0  0
 32 55  1  0  0  0  0
 32 56  1  0  0  0  0
 33 57  1  0  0  0  0
 33 58  1  0  0  0  0
M  CHG  2   3   1  14   1
M  END
>  <energy>
368.60232976944377

$$$$
