C=C1C2CC3C(O)C4CC1C3(NC(=O)C1=CCC3C1C1CC(C#CC[N+](C)(C)C)C31)C24
                    3D

 66 72  0  0  0  0  0  0  0  0999 V2000
    4.4298   -2.5189   -2.5894 C   0  0  0  0  0  0  0  0  0  0  0  0
    3.9080   -2.2837   -1.3798 C   0  0  0  0  0  0  0  0  0  0  0  0
    4.7346   -2.0678   -0.0321 C   0  0  0  0  0  0  0  0  0  0  0  0
    4.7309   -0.8264    0.8711 C   0  0  0  0  0  0  0  0  0  0  0  0
    3.2170   -0.5387    1.1447 C   0  0  0  0  0  0  0  0  0  0  0  0
    2.5359   -1.4263    2.1719 C   0  0  0  0  0  0  0  0  0  0  0  0
    1.2632   -0.9094    2.5248 O   0  0  0  0  0  0  0  0  0  0  0  0
    2.4095   -2.7358    1.4325 C   0  0  0  0  0  0  0  0  0  0  0  0
    1.4452   -2.8925    0.1922 C   0  0  0  0  0  0  0  0  0  0  0  0
    2.2669   -2.1811   -1.0226 C   0  0  0  0  0  0  0  0  0  0  0  0
    2.6088   -1.0414   -0.1616 C   0  0  0  0  0  0  0  0  0  0  0  0
    2.9410    0.0847   -1.0836 N   0  0  0  0  0  0  0  0  0  0  0  0
    1.8706    0.6778   -1.7228 C   0  0  0  0  0  0  0  0  0  0  0  0
    1.0147    0.1136   -2.3939 O   0  0  0  0  0  0  0  0  0  0  0  0
    1.6718    2.0763   -1.3096 C   0  0  0  0  0  0  0  0  0  0  0  0
    1.6147    3.1247   -2.1405 C   0  0  0  0  0  0  0  0  0  0  0  0
    0.9754    4.3221   -1.4998 C   0  0  0  0  0  0  0  0  0  0  0  0
    0.3244    3.7614   -0.2243 C   0  0  0  0  0  0  0  0  0  0  0  0
    1.0657    2.4127    0.0077 C   0  0  0  0  0  0  0  0  0  0  0  0
   -0.2793    1.7298    0.2707 C   0  0  0  0  0  0  0  0  0  0  0  0
   -0.9769    2.1073    1.5881 C   0  0  0  0  0  0  0  0  0  0  0  0
   -1.9958    2.9312    0.7549 C   0  0  0  0  0  0  0  0  0  0  0  0
   -3.2054    2.2036    0.3860 C   0  0  0  0  0  0  0  0  0  0  0  0
   -4.0730    1.5016   -0.0610 C   0  0  0  0  0  0  0  0  0  0  0  0
   -4.9894    0.5524   -0.6992 C   0  0  0  0  0  0  0  0  0  0  0  0
   -5.1244   -0.7457    0.1111 N   0  3  0  0  0  0  0  0  0  0  0  0
   -5.8462   -0.4728    1.4199 C   0  0  0  0  0  0  0  0  0  0  0  0
   -3.7510   -1.3539    0.3935 C   0  0  0  0  0  0  0  0  0  0  0  0
   -5.9443   -1.7313   -0.7080 C   0  0  0  0  0  0  0  0  0  0  0  0
   -0.9805    2.9285   -0.4071 C   0  0  0  0  0  0  0  0  0  0  0  0
    3.4817   -2.5731    0.4472 C   0  0  0  0  0  0  0  0  0  0  0  0
    5.5021   -2.5715   -2.7338 H   0  0  0  0  0  0  0  0  0  0  0  0
    3.7937   -2.6490   -3.4574 H   0  0  0  0  0  0  0  0  0  0  0  0
    5.5875   -2.7389    0.0902 H   0  0  0  0  0  0  0  0  0  0  0  0
    5.2349    0.0068    0.3726 H   0  0  0  0  0  0  0  0  0  0  0  0
    5.2499   -1.0169    1.8188 H   0  0  0  0  0  0  0  0  0  0  0  0
    3.0475    0.5193    1.3693 H   0  0  0  0  0  0  0  0  0  0  0  0
    3.1461   -1.5278    3.0765 H   0  0  0  0  0  0  0  0  0  0  0  0
    1.4241   -0.1960    3.1673 H   0  0  0  0  0  0  0  0  0  0  0  0
    2.4354   -3.6172    2.0782 H   0  0  0  0  0  0  0  0  0  0  0  0
    0.4843   -2.3918    0.3607 H   0  0  0  0  0  0  0  0  0  0  0  0
    1.2635   -3.9442   -0.0556 H   0  0  0  0  0  0  0  0  0  0  0  0
    1.6560   -2.0540   -1.9150 H   0  0  0  0  0  0  0  0  0  0  0  0
    3.6067    0.7617   -0.7352 H   0  0  0  0  0  0  0  0  0  0  0  0
    1.8574    3.0814   -3.1952 H   0  0  0  0  0  0  0  0  0  0  0  0
    1.7362    5.0713   -1.2583 H   0  0  0  0  0  0  0  0  0  0  0  0
    0.2293    4.7772   -2.1589 H   0  0  0  0  0  0  0  0  0  0  0  0
    0.3164    4.4603    0.6195 H   0  0  0  0  0  0  0  0  0  0  0  0
    1.7831    2.4030    0.8328 H   0  0  0  0  0  0  0  0  0  0  0  0
   -0.4954    0.7396   -0.1331 H   0  0  0  0  0  0  0  0  0  0  0  0
   -0.3752    2.7028    2.2868 H   0  0  0  0  0  0  0  0  0  0  0  0
   -1.3882    1.2563    2.1407 H   0  0  0  0  0  0  0  0  0  0  0  0
   -2.2056    3.9264    1.1610 H   0  0  0  0  0  0  0  0  0  0  0  0
   -4.6088    0.2728   -1.6883 H   0  0  0  0  0  0  0  0  0  0  0  0
   -5.9939    0.9716   -0.8155 H   0  0  0  0  0  0  0  0  0  0  0  0
   -6.8363   -0.0681    1.1871 H   0  0  0  0  0  0  0  0  0  0  0  0
   -5.2683    0.2443    2.0100 H   0  0  0  0  0  0  0  0  0  0  0  0
   -5.9401   -1.4159    1.9666 H   0  0  0  0  0  0  0  0  0  0  0  0
   -3.2235   -0.7308    1.1227 H   0  0  0  0  0  0  0  0  0  0  0  0
   -3.1946   -1.4078   -0.5480 H   0  0  0  0  0  0  0  0  0  0  0  0
   -3.8973   -2.3547    0.8091 H   0  0  0  0  0  0  0  0  0  0  0  0
   -5.3692   -2.0123   -1.5967 H   0  0  0  0  0  0  0  0  0  0  0  0
   -6.8829   -1.2466   -0.9978 H   0  0  0  0  0  0  0  0  0  0  0  0
   -6.1514   -2.6137   -0.0941 H   0  0  0  0  0  0  0  0  0  0  0  0
   -1.3393    2.7730   -1.4288 H   0  0  0  0  0  0  0  0  0  0  0  0
    3.4723   -3.6391    0.0605 H   0  0  0  0  0  0  0  0  0  0  0  0
  2  1  2  0  0  0  0
  3  2  1  0  0  0  0
  4  3  1  0  0  0  0
  5  4  1  0  0  0  0
  6  5  1  0  0  0  0
  7  6  1  0  0  0  0
  8  6  1  0  0  0  0
  9  8  1  0  0  0  0
 10  9  1  0  0  0  0
 10  2  1  0  0  0  0
 11 10  1  0  0  0  0
 11  5  1  0  0  0  0
 12 11  1  0  0  0  0
 13 12  1  0  0  0  0
 14 13  2  0  0  0  0
 15 13  1  0  0  0  0
 16 15  2  0  0  0  0
 17 16  1  0  0  0  0
 18 17  1  0  0  0  0
 19 18  1  0  0  0  0
 19 15  1  0  0  0  0
 20 19  1  0  0  0  0
 21 20  1  0  0  0  0
 22 21  1  0  0  0  0
 23 22  1  0  0  0  0
 24 23  3  0  0  0  0
 25 24  1  0  0  0  0
 26 25  1  0  0  0  0
 27 26  1  0  0  0  0
 28 26  1  0  0  0  0
 29 26  1  0  0  0  0
 30 22  1  0  0  0  0
 30 18  1  0  0  0  0
 30 20  1  0  0  0  0
 31 11  1  0  0  0  0
 31  3  1  0  0  0  0
 31  8  1  0  0  0  0
  1 32  1  0  0  0  0
  1 33  1  0  0  0  0
  3 34  1  0  0  0  0
  4 35  1  0  0  0  0
  4 36  1  0  0  0  0
  5 37  1  0  0  0  0
  6 38  1  0  0  0  0
  7 39  1  0  0  0  0
  8 40  1  0  0  0  0
  9 41  1  0  0  0  0
  9 42  1  0  0  0  0
 10 43  1  0  0  0  0
 12 44  1  0  0  0  0
 16 45  1  0  0  0  0
 17 46  1  0  0  0  0
 17 47  1  0  0  0  0
 18 48  1  0  0  0  0
 19 49  1  0  0  0  0
 20 50  1  0  0  0  0
 21 51  1  0  0  0  0
 21 52  1  0  0  0  0
 22 53  1  0  0  0  0
 25 54  1  0  0  0  0
 25 55  1  0  0  0  0
 27 56  1  0  0  0  0
 27 57  1  0  0  0  0
 27 58  1  0  0  0  0
 28 59  1  0  0  0  0
 28 60  1  0  0  0  0
 28 61  1  0  0  0  0
 29 62  1  0  0  0  0
 29 63  1  0  0  0  0
 29 64  1  0  0  0  0
 30 65  1  0  0  0  0
 31 66  1  0  0  0  0
M  CHG  1  26   1
M  END
>  <energy>
339.54233327751746

$$$$
