CCCCNC(C)=NCCCNC(=O)C(N)CCC1CC23CC(CC(Br)(CN1)C2)C3
                    3D

 72 74  0  0  0  0  0  0  0  0999 V2000
   -1.9144    2.1128    3.6035 C   0  0  0  0  0  0  0  0  0  0  0  0
   -2.7811    2.1230    2.3539 C   0  0  0  0  0  0  0  0  0  0  0  0
   -2.8484    0.7490    1.6935 C   0  0  0  0  0  0  0  0  0  0  0  0
   -3.7947    0.7583    0.4899 C   0  0  0  0  0  0  0  0  0  0  0  0
   -3.6289   -0.4783   -0.2667 N   0  0  0  0  0  0  0  0  0  0  0  0
   -4.2843   -0.6875   -1.4612 C   0  0  0  0  0  0  0  0  0  0  0  0
   -5.7908   -0.4861   -1.5072 C   0  0  0  0  0  0  0  0  0  0  0  0
   -3.7441   -1.0994   -2.5582 N   0  0  0  0  0  0  0  0  0  0  0  0
   -2.3027   -1.2781   -2.6846 C   0  0  0  0  0  0  0  0  0  0  0  0
   -1.8818   -2.6712   -2.2256 C   0  0  0  0  0  0  0  0  0  0  0  0
   -0.3665   -2.8434   -2.3141 C   0  0  0  0  0  0  0  0  0  0  0  0
    0.1025   -4.0508   -1.6550 N   0  0  0  0  0  0  0  0  0  0  0  0
    0.3701   -4.2623   -0.3278 C   0  0  0  0  0  0  0  0  0  0  0  0
    0.8035   -5.3641    0.0145 O   0  0  0  0  0  0  0  0  0  0  0  0
    0.1113   -3.1155    0.6742 C   0  0  0  0  0  0  0  0  0  0  0  0
   -0.7679   -3.5707    1.7652 N   0  0  0  0  0  0  0  0  0  0  0  0
    1.4311   -2.5828    1.2511 C   0  0  0  0  0  0  0  0  0  0  0  0
    1.3163   -1.0849    1.5890 C   0  0  0  0  0  0  0  0  0  0  0  0
    1.9483   -0.2003    0.4841 C   0  0  0  0  0  0  0  0  0  0  0  0
    1.1043    1.1177    0.3033 C   0  0  0  0  0  0  0  0  0  0  0  0
    1.9748    2.2075   -0.2972 C   0  0  0  0  0  0  0  0  0  0  0  0
    1.9092    3.7531   -0.6157 C   0  0  0  0  0  0  0  0  0  0  0  0
    3.3821    3.7486    0.0049 C   0  0  0  0  0  0  0  0  0  0  0  0
    4.5601    2.9580   -0.6421 C   0  0  0  0  0  0  0  0  0  0  0  0
    4.1228    1.5643   -1.1946 C   0  0  0  0  0  0  0  0  0  0  0  0
    5.1907    1.2366   -2.8387 Br  0  0  0  0  0  0  0  0  0  0  0  0
    4.3026    0.2887   -0.3005 C   0  0  0  0  0  0  0  0  0  0  0  0
    3.3776    0.0076    0.8238 N   0  0  0  0  0  0  0  0  0  0  0  0
    2.6697    1.6718   -1.5815 C   0  0  0  0  0  0  0  0  0  0  0  0
    2.7549    2.8106    1.0159 C   0  0  0  0  0  0  0  0  0  0  0  0
   -1.8564    3.1202    4.0310 H   0  0  0  0  0  0  0  0  0  0  0  0
   -2.3346    1.4478    4.3646 H   0  0  0  0  0  0  0  0  0  0  0  0
   -0.8951    1.7822    3.3798 H   0  0  0  0  0  0  0  0  0  0  0  0
   -3.7883    2.4586    2.6218 H   0  0  0  0  0  0  0  0  0  0  0  0
   -2.3698    2.8512    1.6457 H   0  0  0  0  0  0  0  0  0  0  0  0
   -1.8399    0.4548    1.3792 H   0  0  0  0  0  0  0  0  0  0  0  0
   -3.1890   -0.0037    2.4153 H   0  0  0  0  0  0  0  0  0  0  0  0
   -4.8266    0.8645    0.8439 H   0  0  0  0  0  0  0  0  0  0  0  0
   -3.5650    1.6097   -0.1632 H   0  0  0  0  0  0  0  0  0  0  0  0
   -2.6553   -0.7496   -0.3090 H   0  0  0  0  0  0  0  0  0  0  0  0
   -6.2799   -1.3974   -1.1458 H   0  0  0  0  0  0  0  0  0  0  0  0
   -6.1156   -0.2975   -2.5361 H   0  0  0  0  0  0  0  0  0  0  0  0
   -6.1055    0.3560   -0.8857 H   0  0  0  0  0  0  0  0  0  0  0  0
   -2.0425   -1.1512   -3.7415 H   0  0  0  0  0  0  0  0  0  0  0  0
   -1.7488   -0.4947   -2.1533 H   0  0  0  0  0  0  0  0  0  0  0  0
   -2.2294   -2.8472   -1.2037 H   0  0  0  0  0  0  0  0  0  0  0  0
   -2.3775   -3.4306   -2.8404 H   0  0  0  0  0  0  0  0  0  0  0  0
    0.1571   -1.9883   -1.8748 H   0  0  0  0  0  0  0  0  0  0  0  0
   -0.0595   -2.9123   -3.3629 H   0  0  0  0  0  0  0  0  0  0  0  0
    0.2963   -4.8694   -2.2239 H   0  0  0  0  0  0  0  0  0  0  0  0
   -0.4144   -2.3061    0.1643 H   0  0  0  0  0  0  0  0  0  0  0  0
   -1.0856   -2.7849    2.3272 H   0  0  0  0  0  0  0  0  0  0  0  0
   -1.5946   -4.0286    1.3832 H   0  0  0  0  0  0  0  0  0  0  0  0
    1.6931   -3.1395    2.1612 H   0  0  0  0  0  0  0  0  0  0  0  0
    2.2593   -2.7623    0.5565 H   0  0  0  0  0  0  0  0  0  0  0  0
    1.8094   -0.8939    2.5521 H   0  0  0  0  0  0  0  0  0  0  0  0
    0.2654   -0.8133    1.7461 H   0  0  0  0  0  0  0  0  0  0  0  0
    1.8930   -0.7646   -0.4568 H   0  0  0  0  0  0  0  0  0  0  0  0
    0.6828    1.4368    1.2650 H   0  0  0  0  0  0  0  0  0  0  0  0
    0.2540    0.9011   -0.3543 H   0  0  0  0  0  0  0  0  0  0  0  0
    1.8486    4.0908   -1.6555 H   0  0  0  0  0  0  0  0  0  0  0  0
    1.1604    4.3195   -0.0447 H   0  0  0  0  0  0  0  0  0  0  0  0
    3.7093    4.7166    0.3940 H   0  0  0  0  0  0  0  0  0  0  0  0
    4.9669    3.5951   -1.4369 H   0  0  0  0  0  0  0  0  0  0  0  0
    5.3680    2.8285    0.0891 H   0  0  0  0  0  0  0  0  0  0  0  0
    4.2832   -0.6092   -0.9358 H   0  0  0  0  0  0  0  0  0  0  0  0
    5.3155    0.3186    0.1206 H   0  0  0  0  0  0  0  0  0  0  0  0
    3.7356   -0.8129    1.3154 H   0  0  0  0  0  0  0  0  0  0  0  0
    2.2537    0.7205   -1.9359 H   0  0  0  0  0  0  0  0  0  0  0  0
    2.5379    2.3382   -2.4455 H   0  0  0  0  0  0  0  0  0  0  0  0
    2.0962    3.2955    1.7528 H   0  0  0  0  0  0  0  0  0  0  0  0
    3.4609    2.2186    1.6009 H   0  0  0  0  0  0  0  0  0  0  0  0
  2  1  1  0  0  0  0
  3  2  1  0  0  0  0
  4  3  1  0  0  0  0
  5  4  1  0  0  0  0
  6  5  1  0  0  0  0
  7  6  1  0  0  0  0
  8  6  2  0  0  0  0
  9  8  1  0  0  0  0
 10  9  1  0  0  0  0
 11 10  1  0  0  0  0
 12 11  1  0  0  0  0
 13 12  1  0  0  0  0
 14 13  2  0  0  0  0
 15 13  1  0  0  0  0
 16 15  1  0  0  0  0
 17 15  1  0  0  0  0
 18 17  1  0  0  0  0
 19 18  1  0  0  0  0
 20 19  1  0  0  0  0
 21 20  1  0  0  0  0
 22 21  1  0  0  0  0
 23 22  1  0  0  0  0
 24 23  1  0  0  0  0
 25 24  1  0  0  0  0
 26 25  1  0  0  0  0
 27 25  1  0  0  0  0
 28 27  1  0  0  0  0
 28 19  1  0  0  0  0
 29 25  1  0  0  0  0
 29 21  1  0  0  0  0
 30 23  1  0  0  0  0
 30 21  1  0  0  0  0
  1 31  1  0  0  0  0
  1 32  1  0  0  0  0
  1 33  1  0  0  0  0
  2 34  1  0  0  0  0
  2 35  1  0  0  0  0
  3 36  1  0  0  0  0
  3 37  1  0  0  0  0
  4 38  1  0  0  0  0
  4 39  1  0  0  0  0
  5 40  1  0  0  0  0
  7 41  1  0  0  0  0
  7 42  1  0  0  0  0
  7 43  1  0  0  0  0
  9 44  1  0  0  0  0
  9 45  1  0  0  0  0
 10 46  1  0  0  0  0
 10 47  1  0  0  0  0
 11 48  1  0  0  0  0
 11 49  1  0  0  0  0
 12 50  1  0  0  0  0
 15 51  1  0  0  0  0
 16 52  1  0  0  0  0
 16 53  1  0  0  0  0
 17 54  1  0  0  0  0
 17 55  1  0  0  0  0
 18 56  1  0  0  0  0
 18 57  1  0  0  0  0
 19 58  1  0  0  0  0
 20 59  1  0  0  0  0
 20 60  1  0  0  0  0
 22 61  1  0  0  0  0
 22 62  1  0  0  0  0
 23 63  1  0  0  0  0
 24 64  1  0  0  0  0
 24 65  1  0  0  0  0
 27 66  1  0  0  0  0
 27 67  1  0  0  0  0
 28 68  1  0  0  0  0
 29 69  1  0  0  0  0
 29 70  1  0  0  0  0
 30 71  1  0  0  0  0
 30 72  1  0  0  0  0
M  END
>  <energy>
106.18000254041016

$$$$
