CCCCCCCC(=O)NC1C(O)C(O)C2Cc3[nH]c4cc3CC1C42CCC[N+](C)(C)CCl
                    3D

 76 79  0  0  0  0  0  0  0  0999 V2000
   -3.4746    1.2989    2.3505 C   0  0  0  0  0  0  0  0  0  0  0  0
   -4.2811    0.7393    1.1873 C   0  0  0  0  0  0  0  0  0  0  0  0
   -3.5850    0.9691   -0.1607 C   0  0  0  0  0  0  0  0  0  0  0  0
   -4.3898    0.4310   -1.3552 C   0  0  0  0  0  0  0  0  0  0  0  0
   -4.4227   -1.0949   -1.4724 C   0  0  0  0  0  0  0  0  0  0  0  0
   -3.2036   -1.6588   -2.2179 C   0  0  0  0  0  0  0  0  0  0  0  0
   -2.8824   -3.0949   -1.7801 C   0  0  0  0  0  0  0  0  0  0  0  0
   -2.0285   -3.0089   -0.5340 C   0  0  0  0  0  0  0  0  0  0  0  0
   -2.4087   -2.4229    0.4759 O   0  0  0  0  0  0  0  0  0  0  0  0
   -0.7409   -3.4736   -0.6907 N   0  0  0  0  0  0  0  0  0  0  0  0
    0.3682   -2.5204   -0.5909 C   0  0  0  0  0  0  0  0  0  0  0  0
    1.7026   -3.1869   -0.9881 C   0  0  0  0  0  0  0  0  0  0  0  0
    1.9395   -4.3777   -0.2389 O   0  0  0  0  0  0  0  0  0  0  0  0
    2.9107   -2.2406   -0.8733 C   0  0  0  0  0  0  0  0  0  0  0  0
    4.0921   -3.0270   -1.0531 O   0  0  0  0  0  0  0  0  0  0  0  0
    2.9862   -1.4359    0.4313 C   0  0  0  0  0  0  0  0  0  0  0  0
    3.4077   -2.3121    1.6850 C   0  0  0  0  0  0  0  0  0  0  0  0
    2.6684   -1.6791    2.8358 C   0  0  0  0  0  0  0  0  0  0  0  0
    2.8631   -0.2823    2.9574 N   0  0  0  0  0  0  0  0  0  0  0  0
    1.6970    0.0220    2.1953 C   0  0  0  0  0  0  0  0  0  0  0  0
    0.8806   -0.4169    3.2656 C   0  0  0  0  0  0  0  0  0  0  0  0
    1.2546   -1.7933    3.0456 C   0  0  0  0  0  0  0  0  0  0  0  0
    0.4493   -2.5890    2.0281 C   0  0  0  0  0  0  0  0  0  0  0  0
    0.4285   -1.7052    0.7244 C   0  0  0  0  0  0  0  0  0  0  0  0
    1.6317   -0.6281    0.7068 C   0  0  0  0  0  0  0  0  0  0  0  0
    1.3115    0.5037   -0.3087 C   0  0  0  0  0  0  0  0  0  0  0  0
    2.2959    1.6842   -0.3748 C   0  0  0  0  0  0  0  0  0  0  0  0
    1.8098    2.7594   -1.3680 C   0  0  0  0  0  0  0  0  0  0  0  0
    1.3331    4.0813   -0.7257 N   0  3  0  0  0  0  0  0  0  0  0  0
    0.8324    4.9725   -1.8756 C   0  0  0  0  0  0  0  0  0  0  0  0
    2.4929    4.8027   -0.0382 C   0  0  0  0  0  0  0  0  0  0  0  0
    0.1865    3.8108    0.2637 C   0  0  0  0  0  0  0  0  0  0  0  0
   -0.4360    5.2945    0.9805 Cl  0  0  0  0  0  0  0  0  0  0  0  0
   -3.3006    2.3720    2.2330 H   0  0  0  0  0  0  0  0  0  0  0  0
   -2.5073    0.7975    2.4365 H   0  0  0  0  0  0  0  0  0  0  0  0
   -4.0141    1.1433    3.2892 H   0  0  0  0  0  0  0  0  0  0  0  0
   -5.2702    1.2133    1.1785 H   0  0  0  0  0  0  0  0  0  0  0  0
   -4.4383   -0.3298    1.3619 H   0  0  0  0  0  0  0  0  0  0  0  0
   -3.4596    2.0519   -0.3039 H   0  0  0  0  0  0  0  0  0  0  0  0
   -2.5787    0.5322   -0.1478 H   0  0  0  0  0  0  0  0  0  0  0  0
   -3.9733    0.8482   -2.2803 H   0  0  0  0  0  0  0  0  0  0  0  0
   -5.4196    0.7977   -1.2808 H   0  0  0  0  0  0  0  0  0  0  0  0
   -5.3111   -1.3848   -2.0460 H   0  0  0  0  0  0  0  0  0  0  0  0
   -4.5462   -1.5539   -0.4882 H   0  0  0  0  0  0  0  0  0  0  0  0
   -3.4175   -1.6448   -3.2951 H   0  0  0  0  0  0  0  0  0  0  0  0
   -2.3273   -1.0144   -2.0637 H   0  0  0  0  0  0  0  0  0  0  0  0
   -3.7835   -3.6786   -1.5692 H   0  0  0  0  0  0  0  0  0  0  0  0
   -2.3306   -3.5977   -2.5825 H   0  0  0  0  0  0  0  0  0  0  0  0
   -0.6241   -4.1723   -1.4160 H   0  0  0  0  0  0  0  0  0  0  0  0
    0.1547   -1.7905   -1.3839 H   0  0  0  0  0  0  0  0  0  0  0  0
    1.6295   -3.5258   -2.0283 H   0  0  0  0  0  0  0  0  0  0  0  0
    2.8753   -4.6095   -0.4142 H   0  0  0  0  0  0  0  0  0  0  0  0
    2.8641   -1.5377   -1.7126 H   0  0  0  0  0  0  0  0  0  0  0  0
    4.8733   -2.4596   -0.9286 H   0  0  0  0  0  0  0  0  0  0  0  0
    3.7944   -0.6999    0.3099 H   0  0  0  0  0  0  0  0  0  0  0  0
    4.4926   -2.2629    1.8338 H   0  0  0  0  0  0  0  0  0  0  0  0
    3.1372   -3.3661    1.5873 H   0  0  0  0  0  0  0  0  0  0  0  0
    3.7571    0.1202    2.7291 H   0  0  0  0  0  0  0  0  0  0  0  0
    0.8747    0.0453    4.2542 H   0  0  0  0  0  0  0  0  0  0  0  0
   -0.5645   -2.7457    2.4120 H   0  0  0  0  0  0  0  0  0  0  0  0
    0.8891   -3.5763    1.8767 H   0  0  0  0  0  0  0  0  0  0  0  0
   -0.4895   -1.1055    0.7940 H   0  0  0  0  0  0  0  0  0  0  0  0
    0.3159    0.9013   -0.0729 H   0  0  0  0  0  0  0  0  0  0  0  0
    1.2406    0.0785   -1.3150 H   0  0  0  0  0  0  0  0  0  0  0  0
    2.4862    2.0956    0.6196 H   0  0  0  0  0  0  0  0  0  0  0  0
    3.2578    1.3055   -0.7388 H   0  0  0  0  0  0  0  0  0  0  0  0
    2.6290    3.0247   -2.0505 H   0  0  0  0  0  0  0  0  0  0  0  0
    0.9735    2.3861   -1.9753 H   0  0  0  0  0  0  0  0  0  0  0  0
   -0.0536    4.5086   -2.3196 H   0  0  0  0  0  0  0  0  0  0  0  0
    0.5993    5.9703   -1.4956 H   0  0  0  0  0  0  0  0  0  0  0  0
    1.6301    5.0522   -2.6223 H   0  0  0  0  0  0  0  0  0  0  0  0
    2.2449    5.8623    0.0664 H   0  0  0  0  0  0  0  0  0  0  0  0
    3.3883    4.7012   -0.6611 H   0  0  0  0  0  0  0  0  0  0  0  0
    2.6608    4.3533    0.9428 H   0  0  0  0  0  0  0  0  0  0  0  0
   -0.6132    3.3018   -0.2840 H   0  0  0  0  0  0  0  0  0  0  0  0
    0.5655    3.1717    1.0641 H   0  0  0  0  0  0  0  0  0  0  0  0
  2  1  1  0  0  0  0
  3  2  1  0  0  0  0
  4  3  1  0  0  0  0
  5  4  1  0  0  0  0
  6  5  1  0  0  0  0
  7  6  1  0  0  0  0
  8  7  1  0  0  0  0
  9  8  2  0  0  0  0
 10  8  1  0  0  0  0
 11 10  1  0  0  0  0
 12 11  1  0  0  0  0
 13 12  1  0  0  0  0
 14 12  1  0  0  0  0
 15 14  1  0  0  0  0
 16 14  1  0  0  0  0
 17 16  1  0  0  0  0
 18 17  1  0  0  0  0
 19 18  1  0  0  0  0
 20 19  1  0  0  0  0
 21 20  2  0  0  0  0
 22 21  1  0  0  0  0
 22 18  2  0  0  0  0
 23 22  1  0  0  0  0
 24 23  1  0  0  0  0
 24 11  1  0  0  0  0
 25 24  1  0  0  0  0
 25 20  1  0  0  0  0
 25 16  1  0  0  0  0
 26 25  1  0  0  0  0
 27 26  1  0  0  0  0
 28 27  1  0  0  0  0
 29 28  1  0  0  0  0
 30 29  1  0  0  0  0
 31 29  1  0  0  0  0
 32 29  1  0  0  0  0
 33 32  1  0  0  0  0
  1 34  1  0  0  0  0
  1 35  1  0  0  0  0
  1 36  1  0  0  0  0
  2 37  1  0  0  0  0
  2 38  1  0  0  0  0
  3 39  1  0  0  0  0
  3 40  1  0  0  0  0
  4 41  1  0  0  0  0
  4 42  1  0  0  0  0
  5 43  1  0  0  0  0
  5 44  1  0  0  0  0
  6 45  1  0  0  0  0
  6 46  1  0  0  0  0
  7 47  1  0  0  0  0
  7 48  1  0  0  0  0
 10 49  1  0  0  0  0
 11 50  1  0  0  0  0
 12 51  1  0  0  0  0
 13 52  1  0  0  0  0
 14 53  1  0  0  0  0
 15 54  1  0  0  0  0
 16 55  1  0  0  0  0
 17 56  1  0  0  0  0
 17 57  1  0  0  0  0
 19 58  1  0  0  0  0
 21 59  1  0  0  0  0
 23 60  1  0  0  0  0
 23 61  1  0  0  0  0
 24 62  1  0  0  0  0
 26 63  1  0  0  0  0
 26 64  1  0  0  0  0
 27 65  1  0  0  0  0
 27 66  1  0  0  0  0
 28 67  1  0  0  0  0
 28 68  1  0  0  0  0
 30 69  1  0  0  0  0
 30 70  1  0  0  0  0
 30 71  1  0  0  0  0
 31 72  1  0  0  0  0
 31 73  1  0  0  0  0
 31 74  1  0  0  0  0
 32 75  1  0  0  0  0
 32 76  1  0  0  0  0
M  CHG  1  29   1
M  END
>  <energy>
190.59824153384889

$$$$
