COc1cc(C=CC(OCCCN(C)C)C2=C(O)OC3=CC4=C2OCc2cc(C)oc2C4O3)cc(OC)c1OC
                    3D

 75 79  0  0  0  0  0  0  0  0999 V2000
    3.3328    4.3563    1.8300 C   0  0  0  0  0  0  0  0  0  0  0  0
    4.0125    3.1123    1.7113 O   0  0  0  0  0  0  0  0  0  0  0  0
    3.3613    2.1838    0.9456 C   0  0  0  0  0  0  0  0  0  0  0  0
    2.7463    2.5376   -0.2791 C   0  0  0  0  0  0  0  0  0  0  0  0
    2.1952    1.5646   -1.1212 C   0  0  0  0  0  0  0  0  0  0  0  0
    1.7009    1.9213   -2.4669 C   0  0  0  0  0  0  0  0  0  0  0  0
    0.5149    1.6275   -3.0400 C   0  0  0  0  0  0  0  0  0  0  0  0
   -0.6980    0.9524   -2.4380 C   0  0  0  0  0  0  0  0  0  0  0  0
   -1.8319    1.7618   -2.7667 O   0  0  0  0  0  0  0  0  0  0  0  0
   -2.8538    1.7203   -1.7760 C   0  0  0  0  0  0  0  0  0  0  0  0
   -2.6106    2.8014   -0.7208 C   0  0  0  0  0  0  0  0  0  0  0  0
   -3.4314    2.5522    0.5503 C   0  0  0  0  0  0  0  0  0  0  0  0
   -3.2561    3.5839    1.5925 N   0  0  0  0  0  0  0  0  0  0  0  0
   -1.8698    3.7018    2.0435 C   0  0  0  0  0  0  0  0  0  0  0  0
   -4.1233    3.3123    2.7400 C   0  0  0  0  0  0  0  0  0  0  0  0
   -0.8696   -0.4805   -2.9341 C   0  0  0  0  0  0  0  0  0  0  0  0
   -1.3214   -0.8896   -4.1592 C   0  0  0  0  0  0  0  0  0  0  0  0
   -1.7306    0.0430   -5.0947 O   0  0  0  0  0  0  0  0  0  0  0  0
   -1.3382   -2.2503   -4.6085 O   0  0  0  0  0  0  0  0  0  0  0  0
   -0.3669   -3.1416   -4.0671 C   0  0  0  0  0  0  0  0  0  0  0  0
    0.7722   -2.5626   -3.6472 C   0  0  0  0  0  0  0  0  0  0  0  0
    0.3733   -2.4799   -2.2387 C   0  0  0  0  0  0  0  0  0  0  0  0
   -0.4847   -1.4740   -1.8939 C   0  0  0  0  0  0  0  0  0  0  0  0
   -1.3904   -1.4475   -0.8591 O   0  0  0  0  0  0  0  0  0  0  0  0
   -1.0597   -2.0654    0.3814 C   0  0  0  0  0  0  0  0  0  0  0  0
   -0.9885   -3.5423    0.3496 C   0  0  0  0  0  0  0  0  0  0  0  0
   -1.2629   -4.4481    1.4099 C   0  0  0  0  0  0  0  0  0  0  0  0
   -0.8175   -5.6836    0.9928 C   0  0  0  0  0  0  0  0  0  0  0  0
   -0.6575   -6.9853    1.6748 C   0  0  0  0  0  0  0  0  0  0  0  0
   -0.3981   -5.6136   -0.3036 O   0  0  0  0  0  0  0  0  0  0  0  0
   -0.5157   -4.3097   -0.6932 C   0  0  0  0  0  0  0  0  0  0  0  0
    0.0728   -3.9240   -1.9948 C   0  0  0  0  0  0  0  0  0  0  0  0
   -0.8379   -4.1504   -3.1316 O   0  0  0  0  0  0  0  0  0  0  0  0
    2.2562    0.2368   -0.7122 C   0  0  0  0  0  0  0  0  0  0  0  0
    2.8067   -0.1297    0.5188 C   0  0  0  0  0  0  0  0  0  0  0  0
    2.7450   -1.4791    0.7802 O   0  0  0  0  0  0  0  0  0  0  0  0
    2.4661   -1.8256    2.1359 C   0  0  0  0  0  0  0  0  0  0  0  0
    3.4040    0.8363    1.3442 C   0  0  0  0  0  0  0  0  0  0  0  0
    4.0913    0.3574    2.4300 O   0  0  0  0  0  0  0  0  0  0  0  0
    4.0365    1.1121    3.6312 C   0  0  0  0  0  0  0  0  0  0  0  0
    2.2866    4.2065    2.1210 H   0  0  0  0  0  0  0  0  0  0  0  0
    3.4018    4.9509    0.9125 H   0  0  0  0  0  0  0  0  0  0  0  0
    3.8215    4.9311    2.6221 H   0  0  0  0  0  0  0  0  0  0  0  0
    2.7496    3.5694   -0.6169 H   0  0  0  0  0  0  0  0  0  0  0  0
    2.4147    2.4669   -3.0830 H   0  0  0  0  0  0  0  0  0  0  0  0
    0.3618    1.9645   -4.0701 H   0  0  0  0  0  0  0  0  0  0  0  0
   -0.5784    0.9667   -1.3473 H   0  0  0  0  0  0  0  0  0  0  0  0
   -2.9282    0.7251   -1.3296 H   0  0  0  0  0  0  0  0  0  0  0  0
   -3.8002    1.9145   -2.2877 H   0  0  0  0  0  0  0  0  0  0  0  0
   -2.8583    3.7753   -1.1546 H   0  0  0  0  0  0  0  0  0  0  0  0
   -1.5427    2.8487   -0.4937 H   0  0  0  0  0  0  0  0  0  0  0  0
   -4.4898    2.5182    0.2572 H   0  0  0  0  0  0  0  0  0  0  0  0
   -3.1778    1.5617    0.9475 H   0  0  0  0  0  0  0  0  0  0  0  0
   -1.4566    2.7397    2.3663 H   0  0  0  0  0  0  0  0  0  0  0  0
   -1.7958    4.4033    2.8833 H   0  0  0  0  0  0  0  0  0  0  0  0
   -1.2341    4.1153    1.2558 H   0  0  0  0  0  0  0  0  0  0  0  0
   -4.0736    4.1386    3.4555 H   0  0  0  0  0  0  0  0  0  0  0  0
   -3.8447    2.3952    3.2690 H   0  0  0  0  0  0  0  0  0  0  0  0
   -5.1718    3.2312    2.4398 H   0  0  0  0  0  0  0  0  0  0  0  0
   -2.1178   -0.4841   -5.8106 H   0  0  0  0  0  0  0  0  0  0  0  0
    1.2067   -1.6840   -4.1223 H   0  0  0  0  0  0  0  0  0  0  0  0
   -0.1297   -1.6372    0.7585 H   0  0  0  0  0  0  0  0  0  0  0  0
   -1.8416   -1.7594    1.0838 H   0  0  0  0  0  0  0  0  0  0  0  0
   -1.6416   -4.2015    2.3936 H   0  0  0  0  0  0  0  0  0  0  0  0
   -1.2872   -7.0321    2.5692 H   0  0  0  0  0  0  0  0  0  0  0  0
   -0.9443   -7.8024    1.0113 H   0  0  0  0  0  0  0  0  0  0  0  0
    0.3870   -7.1263    1.9774 H   0  0  0  0  0  0  0  0  0  0  0  0
    0.9628   -4.5464   -2.1481 H   0  0  0  0  0  0  0  0  0  0  0  0
    1.9171   -0.5407   -1.3800 H   0  0  0  0  0  0  0  0  0  0  0  0
    1.8732   -2.7479    2.1385 H   0  0  0  0  0  0  0  0  0  0  0  0
    3.3959   -2.0273    2.6799 H   0  0  0  0  0  0  0  0  0  0  0  0
    1.8660   -1.0704    2.6586 H   0  0  0  0  0  0  0  0  0  0  0  0
    3.1465    1.7425    3.7279 H   0  0  0  0  0  0  0  0  0  0  0  0
    4.9489    1.7065    3.7401 H   0  0  0  0  0  0  0  0  0  0  0  0
    4.0010    0.3955    4.4601 H   0  0  0  0  0  0  0  0  0  0  0  0
  2  1  1  0  0  0  0
  3  2  1  0  0  0  0
  4  3  2  0  0  0  0
  5  4  1  0  0  0  0
  6  5  1  0  0  0  0
  7  6  2  0  0  0  0
  8  7  1  0  0  0  0
  9  8  1  0  0  0  0
 10  9  1  0  0  0  0
 11 10  1  0  0  0  0
 12 11  1  0  0  0  0
 13 12  1  0  0  0  0
 14 13  1  0  0  0  0
 15 13  1  0  0  0  0
 16  8  1  0  0  0  0
 17 16  2  0  0  0  0
 18 17  1  0  0  0  0
 19 17  1  0  0  0  0
 20 19  1  0  0  0  0
 21 20  2  0  0  0  0
 22 21  1  0  0  0  0
 23 22  2  0  0  0  0
 23 16  1  0  0  0  0
 24 23  1  0  0  0  0
 25 24  1  0  0  0  0
 26 25  1  0  0  0  0
 27 26  1  0  0  0  0
 28 27  2  0  0  0  0
 29 28  1  0  0  0  0
 30 28  1  0  0  0  0
 31 30  1  0  0  0  0
 31 26  2  0  0  0  0
 32 31  1  0  0  0  0
 32 22  1  0  0  0  0
 33 32  1  0  0  0  0
 33 20  1  0  0  0  0
 34  5  2  0  0  0  0
 35 34  1  0  0  0  0
 36 35  1  0  0  0  0
 37 36  1  0  0  0  0
 38 35  2  0  0  0  0
 38  3  1  0  0  0  0
 39 38  1  0  0  0  0
 40 39  1  0  0  0  0
  1 41  1  0  0  0  0
  1 42  1  0  0  0  0
  1 43  1  0  0  0  0
  4 44  1  0  0  0  0
  6 45  1  0  0  0  0
  7 46  1  0  0  0  0
  8 47  1  0  0  0  0
 10 48  1  0  0  0  0
 10 49  1  0  0  0  0
 11 50  1  0  0  0  0
 11 51  1  0  0  0  0
 12 52  1  0  0  0  0
 12 53  1  0  0  0  0
 14 54  1  0  0  0  0
 14 55  1  0  0  0  0
 14 56  1  0  0  0  0
 15 57  1  0  0  0  0
 15 58  1  0  0  0  0
 15 59  1  0  0  0  0
 18 60  1  0  0  0  0
 21 61  1  0  0  0  0
 25 62  1  0  0  0  0
 25 63  1  0  0  0  0
 27 64  1  0  0  0  0
 29 65  1  0  0  0  0
 29 66  1  0  0  0  0
 29 67  1  0  0  0  0
 32 68  1  0  0  0  0
 34 69  1  0  0  0  0
 37 70  1  0  0  0  0
 37 71  1  0  0  0  0
 37 72  1  0  0  0  0
 40 73  1  0  0  0  0
 40 74  1  0  0  0  0
 40 75  1  0  0  0  0
M  END
>  <energy>
210.05120796023297

$$$$
