C=CC12C3CC4CN1C(C)(CCC2C4(O)CO)C3
                    3D

 41 44  0  0  0  0  0  0  0  0999 V2000
    1.6166   -2.1821    2.1841 C   0  0  0  0  0  0  0  0  0  0  0  0
    1.6842   -1.1574    1.3176 C   0  0  0  0  0  0  0  0  0  0  0  0
    0.5400   -0.7268    0.3581 C   0  0  0  0  0  0  0  0  0  0  0  0
    0.9198   -1.3359   -0.9304 C   0  0  0  0  0  0  0  0  0  0  0  0
   -0.4026   -1.5140   -1.7228 C   0  0  0  0  0  0  0  0  0  0  0  0
   -1.4624   -0.4559   -1.2635 C   0  0  0  0  0  0  0  0  0  0  0  0
   -0.6925    0.8244   -1.3952 C   0  0  0  0  0  0  0  0  0  0  0  0
    0.3281    0.6299   -0.3785 N   0  0  0  0  0  0  0  0  0  0  0  0
    1.5887    1.2024   -0.4888 C   0  0  0  0  0  0  0  0  0  0  0  0
    1.8061    2.4449   -1.3431 C   0  0  0  0  0  0  0  0  0  0  0  0
    1.3536    1.6107    1.0717 C   0  0  0  0  0  0  0  0  0  0  0  0
   -0.0976    1.0219    1.8332 C   0  0  0  0  0  0  0  0  0  0  0  0
   -0.6418   -0.4140    1.2072 C   0  0  0  0  0  0  0  0  0  0  0  0
   -1.8833   -0.5477    0.2596 C   0  0  0  0  0  0  0  0  0  0  0  0
   -2.4736   -1.8611    0.4472 O   0  0  0  0  0  0  0  0  0  0  0  0
   -2.9985    0.4438    0.6390 C   0  0  0  0  0  0  0  0  0  0  0  0
   -4.1681    0.1736   -0.1378 O   0  0  0  0  0  0  0  0  0  0  0  0
    2.0092   -0.1495   -1.2641 C   0  0  0  0  0  0  0  0  0  0  0  0
    2.4756   -2.4438    2.7963 H   0  0  0  0  0  0  0  0  0  0  0  0
    0.7239   -2.7875    2.3018 H   0  0  0  0  0  0  0  0  0  0  0  0
    2.6506   -0.6643    1.2506 H   0  0  0  0  0  0  0  0  0  0  0  0
    1.4481   -2.2962   -0.9014 H   0  0  0  0  0  0  0  0  0  0  0  0
   -0.8024   -2.5201   -1.5526 H   0  0  0  0  0  0  0  0  0  0  0  0
   -0.2034   -1.4255   -2.7976 H   0  0  0  0  0  0  0  0  0  0  0  0
   -2.3341   -0.5072   -1.9236 H   0  0  0  0  0  0  0  0  0  0  0  0
   -0.2904    0.9344   -2.4096 H   0  0  0  0  0  0  0  0  0  0  0  0
   -1.2905    1.7161   -1.1866 H   0  0  0  0  0  0  0  0  0  0  0  0
    1.6812    2.2474   -2.4129 H   0  0  0  0  0  0  0  0  0  0  0  0
    2.8232    2.8220   -1.1944 H   0  0  0  0  0  0  0  0  0  0  0  0
    1.1087    3.2488   -1.0816 H   0  0  0  0  0  0  0  0  0  0  0  0
    1.2694    2.7039    1.1593 H   0  0  0  0  0  0  0  0  0  0  0  0
    2.2186    1.3422    1.6880 H   0  0  0  0  0  0  0  0  0  0  0  0
   -0.8665    1.7974    1.7508 H   0  0  0  0  0  0  0  0  0  0  0  0
    0.1378    0.8926    2.8965 H   0  0  0  0  0  0  0  0  0  0  0  0
   -0.8031   -1.0867    2.0578 H   0  0  0  0  0  0  0  0  0  0  0  0
   -1.7605   -2.5208    0.4068 H   0  0  0  0  0  0  0  0  0  0  0  0
   -2.7233    1.4883    0.4800 H   0  0  0  0  0  0  0  0  0  0  0  0
   -3.2795    0.3199    1.6904 H   0  0  0  0  0  0  0  0  0  0  0  0
   -4.2564   -0.8008   -0.1062 H   0  0  0  0  0  0  0  0  0  0  0  0
    3.0159   -0.4532   -0.9522 H   0  0  0  0  0  0  0  0  0  0  0  0
    2.0312   -0.0145   -2.3536 H   0  0  0  0  0  0  0  0  0  0  0  0
  2  1  2  0  0  0  0
  3  2  1  0  0  0  0
  4  3  1  0  0  0  0
  5  4  1  0  0  0  0
  6  5  1  0  0  0  0
  7  6  1  0  0  0  0
  8  7  1  0  0  0  0
  8  3  1  0  0  0  0
  9  8  1  0  0  0  0
 10  9  1  0  0  0  0
 11  9  1  0  0  0  0
 12 11  1  0  0  0  0
 13 12  1  0  0  0  0
 13  3  1  0  0  0  0
 14 13  1  0  0  0  0
 14  6  1  0  0  0  0
 15 14  1  0  0  0  0
 16 14  1  0  0  0  0
 17 16  1  0  0  0  0
 18  9  1  0  0  0  0
 18  4  1  0  0  0  0
  1 19  1  0  0  0  0
  1 20  1  0  0  0  0
  2 21  1  0  0  0  0
  4 22  1  0  0  0  0
  5 23  1  0  0  0  0
  5 24  1  0  0  0  0
  6 25  1  0  0  0  0
  7 26  1  0  0  0  0
  7 27  1  0  0  0  0
 10 28  1  0  0  0  0
 10 29  1  0  0  0  0
 10 30  1  0  0  0  0
 11 31  1  0  0  0  0
 11 32  1  0  0  0  0
 12 33  1  0  0  0  0
 12 34  1  0  0  0  0
 13 35  1  0  0  0  0
 15 36  1  0  0  0  0
 16 37  1  0  0  0  0
 16 38  1  0  0  0  0
 17 39  1  0  0  0  0
 18 40  1  0  0  0  0
 18 41  1  0  0  0  0
M  END
>  <energy>
230.59335114878718

$$$$
