OC1(CN2CCCC23CC24CC(CC3C2)C4)CCCC1
                    3D

 49 53  0  0  0  0  0  0  0  0999 V2000
    3.5020   -1.1024    0.6036 O   0  0  0  0  0  0  0  0  0  0  0  0
    2.6518    0.0391    0.5457 C   0  0  0  0  0  0  0  0  0  0  0  0
    1.1557   -0.3549    0.7892 C   0  0  0  0  0  0  0  0  0  0  0  0
    0.5644   -1.2223   -0.2428 N   0  0  0  0  0  0  0  0  0  0  0  0
    0.8902   -2.6324    0.0266 C   0  0  0  0  0  0  0  0  0  0  0  0
    0.1297   -3.3467   -1.0541 C   0  0  0  0  0  0  0  0  0  0  0  0
   -1.1935   -2.6232   -1.0338 C   0  0  0  0  0  0  0  0  0  0  0  0
   -0.9001   -1.1591   -0.4995 C   0  0  0  0  0  0  0  0  0  0  0  0
   -1.3281   -0.1542   -1.6594 C   0  0  0  0  0  0  0  0  0  0  0  0
   -2.5678    0.5966   -1.0832 C   0  0  0  0  0  0  0  0  0  0  0  0
   -3.4826    1.7066   -0.3083 C   0  0  0  0  0  0  0  0  0  0  0  0
   -2.3182    1.7173    0.7461 C   0  0  0  0  0  0  0  0  0  0  0  0
   -1.9557    0.4176    1.5297 C   0  0  0  0  0  0  0  0  0  0  0  0
   -1.9641   -0.8691    0.6338 C   0  0  0  0  0  0  0  0  0  0  0  0
   -3.1643   -0.6209   -0.2672 C   0  0  0  0  0  0  0  0  0  0  0  0
   -1.5006    1.7915   -0.5260 C   0  0  0  0  0  0  0  0  0  0  0  0
    2.8863    0.8066   -0.7637 C   0  0  0  0  0  0  0  0  0  0  0  0
    2.6512    2.2817   -0.4400 C   0  0  0  0  0  0  0  0  0  0  0  0
    2.6659    2.4003    1.0820 C   0  0  0  0  0  0  0  0  0  0  0  0
    3.1461    1.0474    1.5910 C   0  0  0  0  0  0  0  0  0  0  0  0
    3.4274   -1.5335   -0.2667 H   0  0  0  0  0  0  0  0  0  0  0  0
    0.6150    0.5813    0.8453 H   0  0  0  0  0  0  0  0  0  0  0  0
    1.0586   -0.8245    1.7769 H   0  0  0  0  0  0  0  0  0  0  0  0
    0.5379   -2.9461    1.0179 H   0  0  0  0  0  0  0  0  0  0  0  0
    1.9502   -2.8730   -0.0577 H   0  0  0  0  0  0  0  0  0  0  0  0
    0.0173   -4.4164   -0.8542 H   0  0  0  0  0  0  0  0  0  0  0  0
    0.6199   -3.2259   -2.0277 H   0  0  0  0  0  0  0  0  0  0  0  0
   -1.8629   -3.1670   -0.3554 H   0  0  0  0  0  0  0  0  0  0  0  0
   -1.6496   -2.6648   -2.0276 H   0  0  0  0  0  0  0  0  0  0  0  0
   -0.4999    0.4619   -2.0338 H   0  0  0  0  0  0  0  0  0  0  0  0
   -1.6563   -0.6974   -2.5547 H   0  0  0  0  0  0  0  0  0  0  0  0
   -4.4771    1.4405    0.0677 H   0  0  0  0  0  0  0  0  0  0  0  0
   -3.6467    2.6441   -0.8631 H   0  0  0  0  0  0  0  0  0  0  0  0
   -2.2850    2.6069    1.3831 H   0  0  0  0  0  0  0  0  0  0  0  0
   -1.0169    0.5347    2.0727 H   0  0  0  0  0  0  0  0  0  0  0  0
   -2.7219    0.2879    2.3061 H   0  0  0  0  0  0  0  0  0  0  0  0
   -2.0922   -1.7395    1.2862 H   0  0  0  0  0  0  0  0  0  0  0  0
   -4.0733   -0.4509    0.3185 H   0  0  0  0  0  0  0  0  0  0  0  0
   -3.4230   -1.4468   -0.9398 H   0  0  0  0  0  0  0  0  0  0  0  0
   -1.5374    2.7361   -1.0929 H   0  0  0  0  0  0  0  0  0  0  0  0
   -0.4384    1.6199   -0.3687 H   0  0  0  0  0  0  0  0  0  0  0  0
    3.9217    0.6682   -1.1025 H   0  0  0  0  0  0  0  0  0  0  0  0
    2.2468    0.4649   -1.5845 H   0  0  0  0  0  0  0  0  0  0  0  0
    1.6934    2.6281   -0.8424 H   0  0  0  0  0  0  0  0  0  0  0  0
    3.4347    2.9005   -0.8906 H   0  0  0  0  0  0  0  0  0  0  0  0
    1.6552    2.6092    1.4497 H   0  0  0  0  0  0  0  0  0  0  0  0
    3.3111    3.2156    1.4241 H   0  0  0  0  0  0  0  0  0  0  0  0
    4.2421    1.0356    1.6440 H   0  0  0  0  0  0  0  0  0  0  0  0
    2.7813    0.8309    2.6003 H   0  0  0  0  0  0  0  0  0  0  0  0
  2  1  1  0  0  0  0
  3  2  1  0  0  0  0
  4  3  1  0  0  0  0
  5  4  1  0  0  0  0
  6  5  1  0  0  0  0
  7  6  1  0  0  0  0
  8  7  1  0  0  0  0
  8  4  1  0  0  0  0
  9  8  1  0  0  0  0
 10  9  1  0  0  0  0
 11 10  1  0  0  0  0
 12 11  1  0  0  0  0
 13 12  1  0  0  0  0
 14 13  1  0  0  0  0
 14  8  1  0  0  0  0
 15 14  1  0  0  0  0
 15 10  1  0  0  0  0
 16 12  1  0  0  0  0
 16 10  1  0  0  0  0
 17  2  1  0  0  0  0
 18 17  1  0  0  0  0
 19 18  1  0  0  0  0
 20 19  1  0  0  0  0
 20  2  1  0  0  0  0
  1 21  1  0  0  0  0
  3 22  1  0  0  0  0
  3 23  1  0  0  0  0
  5 24  1  0  0  0  0
  5 25  1  0  0  0  0
  6 26  1  0  0  0  0
  6 27  1  0  0  0  0
  7 28  1  0  0  0  0
  7 29  1  0  0  0  0
  9 30  1  0  0  0  0
  9 31  1  0  0  0  0
 11 32  1  0  0  0  0
 11 33  1  0  0  0  0
 12 34  1  0  0  0  0
 13 35  1  0  0  0  0
 13 36  1  0  0  0  0
 14 37  1  0  0  0  0
 15 38  1  0  0  0  0
 15 39  1  0  0  0  0
 16 40  1  0  0  0  0
 16 41  1  0  0  0  0
 17 42  1  0  0  0  0
 17 43  1  0  0  0  0
 18 44  1  0  0  0  0
 18 45  1  0  0  0  0
 19 46  1  0  0  0  0
 19 47  1  0  0  0  0
 20 48  1  0  0  0  0
 20 49  1  0  0  0  0
M  END
>  <energy>
175.95984223095621

$$$$
