CC1CCCCC(C=CC2CCCC(=O)O2)=Nc2ccc1[n-]c2=N
                    3D

 48 50  0  0  0  0  0  0  0  0999 V2000
    4.3751   -2.0365    0.4559 C   0  0  0  0  0  0  0  0  0  0  0  0
    3.0255   -2.0257   -0.2656 C   0  0  0  0  0  0  0  0  0  0  0  0
    1.8584   -2.0947    0.7730 C   0  0  0  0  0  0  0  0  0  0  0  0
    1.7488   -0.8616    1.7004 C   0  0  0  0  0  0  0  0  0  0  0  0
    0.4668   -0.0244    1.4875 C   0  0  0  0  0  0  0  0  0  0  0  0
    0.7329    1.4927    1.4273 C   0  0  0  0  0  0  0  0  0  0  0  0
    0.0348    2.1987    0.2533 C   0  0  0  0  0  0  0  0  0  0  0  0
   -1.2091    2.9497    0.5853 C   0  0  0  0  0  0  0  0  0  0  0  0
   -2.4196    2.4849    0.2306 C   0  0  0  0  0  0  0  0  0  0  0  0
   -2.7388    1.1030   -0.2892 C   0  0  0  0  0  0  0  0  0  0  0  0
   -3.5047    0.3758    0.8246 C   0  0  0  0  0  0  0  0  0  0  0  0
   -4.1447   -0.9182    0.3362 C   0  0  0  0  0  0  0  0  0  0  0  0
   -3.9437   -1.1424   -1.1492 C   0  0  0  0  0  0  0  0  0  0  0  0
   -4.2306    0.1389   -1.9004 C   0  0  0  0  0  0  0  0  0  0  0  0
   -5.0003    0.1862   -2.8417 O   0  0  0  0  0  0  0  0  0  0  0  0
   -3.5791    1.2433   -1.4438 O   0  0  0  0  0  0  0  0  0  0  0  0
    0.3414    2.2228   -1.0161 N   0  0  0  0  0  0  0  0  0  0  0  0
    1.3013    1.3553   -1.4603 C   0  0  0  0  0  0  0  0  0  0  0  0
    0.9215    0.2642   -2.1585 C   0  0  0  0  0  0  0  0  0  0  0  0
    1.6803   -0.9342   -1.9541 C   0  0  0  0  0  0  0  0  0  0  0  0
    2.7609   -0.8140   -1.1474 C   0  0  0  0  0  0  0  0  0  0  0  0
    3.4435    0.3243   -0.8354 N   0  5  0  0  0  0  0  0  0  0  0  0
    2.7752    1.4507   -1.1145 C   0  0  0  0  0  0  0  0  0  0  0  0
    3.4787    2.5365   -1.0732 N   0  0  0  0  0  0  0  0  0  0  0  0
    5.1926   -2.1296   -0.2655 H   0  0  0  0  0  0  0  0  0  0  0  0
    4.4165   -2.8830    1.1505 H   0  0  0  0  0  0  0  0  0  0  0  0
    4.5316   -1.1197    1.0382 H   0  0  0  0  0  0  0  0  0  0  0  0
    2.9748   -2.9371   -0.8871 H   0  0  0  0  0  0  0  0  0  0  0  0
    2.0049   -2.9879    1.3850 H   0  0  0  0  0  0  0  0  0  0  0  0
    0.9056   -2.2752    0.2582 H   0  0  0  0  0  0  0  0  0  0  0  0
    1.7569   -1.2182    2.7379 H   0  0  0  0  0  0  0  0  0  0  0  0
    2.6425   -0.2370    1.6058 H   0  0  0  0  0  0  0  0  0  0  0  0
   -0.1852   -0.2097    2.3537 H   0  0  0  0  0  0  0  0  0  0  0  0
   -0.0852   -0.3529    0.5987 H   0  0  0  0  0  0  0  0  0  0  0  0
    0.3312    1.9346    2.3541 H   0  0  0  0  0  0  0  0  0  0  0  0
    1.8016    1.7457    1.4215 H   0  0  0  0  0  0  0  0  0  0  0  0
   -1.0695    3.9208    1.0345 H   0  0  0  0  0  0  0  0  0  0  0  0
   -3.2806    3.1396    0.3800 H   0  0  0  0  0  0  0  0  0  0  0  0
   -1.8373    0.5449   -0.5704 H   0  0  0  0  0  0  0  0  0  0  0  0
   -4.3245    1.0173    1.1840 H   0  0  0  0  0  0  0  0  0  0  0  0
   -2.8483    0.1887    1.6859 H   0  0  0  0  0  0  0  0  0  0  0  0
   -3.7415   -1.7735    0.8903 H   0  0  0  0  0  0  0  0  0  0  0  0
   -5.2221   -0.8680    0.5585 H   0  0  0  0  0  0  0  0  0  0  0  0
   -2.9295   -1.5008   -1.3857 H   0  0  0  0  0  0  0  0  0  0  0  0
   -4.6557   -1.9072   -1.4833 H   0  0  0  0  0  0  0  0  0  0  0  0
   -0.0945    0.1436   -2.5011 H   0  0  0  0  0  0  0  0  0  0  0  0
    1.1385   -1.8521   -2.1190 H   0  0  0  0  0  0  0  0  0  0  0  0
    4.4024    2.1414   -0.8498 H   0  0  0  0  0  0  0  0  0  0  0  0
  2  1  1  0  0  0  0
  3  2  1  0  0  0  0
  4  3  1  0  0  0  0
  5  4  1  0  0  0  0
  6  5  1  0  0  0  0
  7  6  1  0  0  0  0
  8  7  1  0  0  0  0
  9  8  2  0  0  0  0
 10  9  1  0  0  0  0
 11 10  1  0  0  0  0
 12 11  1  0  0  0  0
 13 12  1  0  0  0  0
 14 13  1  0  0  0  0
 15 14  2  0  0  0  0
 16 14  1  0  0  0  0
 16 10  1  0  0  0  0
 17  7  2  0  0  0  0
 18 17  1  0  0  0  0
 19 18  2  0  0  0  0
 20 19  1  0  0  0  0
 21 20  2  0  0  0  0
 21  2  1  0  0  0  0
 22 21  1  0  0  0  0
 23 22  1  0  0  0  0
 23 18  1  0  0  0  0
 24 23  2  0  0  0  0
  1 25  1  0  0  0  0
  1 26  1  0  0  0  0
  1 27  1  0  0  0  0
  2 28  1  0  0  0  0
  3 29  1  0  0  0  0
  3 30  1  0  0  0  0
  4 31  1  0  0  0  0
  4 32  1  0  0  0  0
  5 33  1  0  0  0  0
  5 34  1  0  0  0  0
  6 35  1  0  0  0  0
  6 36  1  0  0  0  0
  8 37  1  0  0  0  0
  9 38  1  0  0  0  0
 10 39  1  0  0  0  0
 11 40  1  0  0  0  0
 11 41  1  0  0  0  0
 12 42  1  0  0  0  0
 12 43  1  0  0  0  0
 13 44  1  0  0  0  0
 13 45  1  0  0  0  0
 19 46  1  0  0  0  0
 20 47  1  0  0  0  0
 24 48  1  0  0  0  0
M  CHG  1  22  -1
M  END
>  <energy>
78.76761109977177

$$$$
