CC(C)NC12CC3CC(CC(F)(F)C1)C32
                    3D

 34 36  0  0  0  0  0  0  0  0999 V2000
   -2.9565   -0.3524   -1.3732 C   0  0  0  0  0  0  0  0  0  0  0  0
   -2.1655    0.5040   -0.3825 C   0  0  0  0  0  0  0  0  0  0  0  0
   -3.1286    1.3940    0.4081 C   0  0  0  0  0  0  0  0  0  0  0  0
   -1.4329   -0.3973    0.5187 N   0  0  0  0  0  0  0  0  0  0  0  0
    0.0279   -0.1766    0.5377 C   0  0  0  0  0  0  0  0  0  0  0  0
    0.6219   -1.4782    1.1792 C   0  0  0  0  0  0  0  0  0  0  0  0
    0.9666   -1.9998   -0.2262 C   0  0  0  0  0  0  0  0  0  0  0  0
    2.4288   -1.8166   -0.6458 C   0  0  0  0  0  0  0  0  0  0  0  0
    2.1557   -0.3159   -0.9160 C   0  0  0  0  0  0  0  0  0  0  0  0
    2.7481    0.6590    0.0982 C   0  0  0  0  0  0  0  0  0  0  0  0
    1.7121    1.6967    0.4849 C   0  0  0  0  0  0  0  0  0  0  0  0
    1.3394    2.3902   -0.6241 F   0  0  0  0  0  0  0  0  0  0  0  0
    2.2915    2.6038    1.3170 F   0  0  0  0  0  0  0  0  0  0  0  0
    0.4714    1.1350    1.1675 C   0  0  0  0  0  0  0  0  0  0  0  0
    0.6409   -0.6222   -0.8086 C   0  0  0  0  0  0  0  0  0  0  0  0
   -3.5049    0.2816   -2.0783 H   0  0  0  0  0  0  0  0  0  0  0  0
   -3.6861   -0.9913   -0.8619 H   0  0  0  0  0  0  0  0  0  0  0  0
   -2.2954   -1.0003   -1.9582 H   0  0  0  0  0  0  0  0  0  0  0  0
   -1.4883    1.1522   -0.9515 H   0  0  0  0  0  0  0  0  0  0  0  0
   -3.6697    2.0668   -0.2661 H   0  0  0  0  0  0  0  0  0  0  0  0
   -3.8719    0.8005    0.9533 H   0  0  0  0  0  0  0  0  0  0  0  0
   -2.5963    2.0148    1.1352 H   0  0  0  0  0  0  0  0  0  0  0  0
   -1.8728   -0.4169    1.4386 H   0  0  0  0  0  0  0  0  0  0  0  0
   -0.0805   -2.1135    1.7323 H   0  0  0  0  0  0  0  0  0  0  0  0
    1.4876   -1.3258    1.8341 H   0  0  0  0  0  0  0  0  0  0  0  0
    0.4045   -2.8510   -0.6109 H   0  0  0  0  0  0  0  0  0  0  0  0
    3.1746   -2.0512    0.1195 H   0  0  0  0  0  0  0  0  0  0  0  0
    2.6865   -2.3772   -1.5526 H   0  0  0  0  0  0  0  0  0  0  0  0
    2.4331   -0.0138   -1.9350 H   0  0  0  0  0  0  0  0  0  0  0  0
    3.6240    1.1540   -0.3373 H   0  0  0  0  0  0  0  0  0  0  0  0
    3.1076    0.1496    0.9994 H   0  0  0  0  0  0  0  0  0  0  0  0
   -0.3073    1.9011    1.1041 H   0  0  0  0  0  0  0  0  0  0  0  0
    0.6648    0.9922    2.2377 H   0  0  0  0  0  0  0  0  0  0  0  0
    0.0697   -0.5954   -1.7372 H   0  0  0  0  0  0  0  0  0  0  0  0
  2  1  1  0  0  0  0
  3  2  1  0  0  0  0
  4  2  1  0  0  0  0
  5  4  1  0  0  0  0
  6  5  1  0  0  0  0
  7  6  1  0  0  0  0
  8  7  1  0  0  0  0
  9  8  1  0  0  0  0
 10  9  1  0  0  0  0
 11 10  1  0  0  0  0
 12 11  1  0  0  0  0
 13 11  1  0  0  0  0
 14 11  1  0  0  0  0
 14  5  1  0  0  0  0
 15  9  1  0  0  0  0
 15  7  1  0  0  0  0
 15  5  1  0  0  0  0
  1 16  1  0  0  0  0
  1 17  1  0  0  0  0
  1 18  1  0  0  0  0
  2 19  1  0  0  0  0
  3 20  1  0  0  0  0
  3 21  1  0  0  0  0
  3 22  1  0  0  0  0
  4 23  1  0  0  0  0
  6 24  1  0  0  0  0
  6 25  1  0  0  0  0
  7 26  1  0  0  0  0
  8 27  1  0  0  0  0
  8 28  1  0  0  0  0
  9 29  1  0  0  0  0
 10 30  1  0  0  0  0
 10 31  1  0  0  0  0
 14 32  1  0  0  0  0
 14 33  1  0  0  0  0
 15 34  1  0  0  0  0
M  END
>  <energy>
41.897211036451488

$$$$
