C=CCNC(=O)C12CC3C(C(C)C)C1C3(Cl)C2
                    3D

 37 39  0  0  0  0  0  0  0  0999 V2000
    5.6661    0.0238    0.7837 C   0  0  0  0  0  0  0  0  0  0  0  0
    4.4732   -0.4110    1.2062 C   0  0  0  0  0  0  0  0  0  0  0  0
    3.5323   -1.1979    0.3563 C   0  0  0  0  0  0  0  0  0  0  0  0
    2.2565   -0.5233    0.3013 N   0  0  0  0  0  0  0  0  0  0  0  0
    1.9696    0.4058   -0.6781 C   0  0  0  0  0  0  0  0  0  0  0  0
    2.8375    0.8403   -1.4417 O   0  0  0  0  0  0  0  0  0  0  0  0
    0.4865    0.8040   -0.7767 C   0  0  0  0  0  0  0  0  0  0  0  0
   -0.0797    1.8368    0.2034 C   0  0  0  0  0  0  0  0  0  0  0  0
   -1.5141    1.3855   -0.0738 C   0  0  0  0  0  0  0  0  0  0  0  0
   -1.5334   -0.1182    0.3932 C   0  0  0  0  0  0  0  0  0  0  0  0
   -2.7611   -0.9868    0.7168 C   0  0  0  0  0  0  0  0  0  0  0  0
   -3.6941   -0.2215    1.6556 C   0  0  0  0  0  0  0  0  0  0  0  0
   -3.5290   -1.5287   -0.4770 C   0  0  0  0  0  0  0  0  0  0  0  0
   -0.6434   -0.2962   -0.8686 C   0  0  0  0  0  0  0  0  0  0  0  0
   -1.4234    0.8797   -1.5501 C   0  0  0  0  0  0  0  0  0  0  0  0
   -2.7808    0.7575   -2.6205 Cl  0  0  0  0  0  0  0  0  0  0  0  0
   -0.0546    1.2844   -2.1441 C   0  0  0  0  0  0  0  0  0  0  0  0
    6.0106   -0.1729   -0.2275 H   0  0  0  0  0  0  0  0  0  0  0  0
    6.3174    0.6013    1.4300 H   0  0  0  0  0  0  0  0  0  0  0  0
    4.1634   -0.1963    2.2232 H   0  0  0  0  0  0  0  0  0  0  0  0
    3.9148   -1.3438   -0.6589 H   0  0  0  0  0  0  0  0  0  0  0  0
    3.3664   -2.1831    0.7996 H   0  0  0  0  0  0  0  0  0  0  0  0
    1.5252   -0.8348    0.9239 H   0  0  0  0  0  0  0  0  0  0  0  0
    0.2256    1.6848    1.2449 H   0  0  0  0  0  0  0  0  0  0  0  0
    0.1095    2.8724   -0.1000 H   0  0  0  0  0  0  0  0  0  0  0  0
   -2.3338    2.0403    0.2209 H   0  0  0  0  0  0  0  0  0  0  0  0
   -0.9327   -0.2327    1.3144 H   0  0  0  0  0  0  0  0  0  0  0  0
   -2.3905   -1.8659    1.2615 H   0  0  0  0  0  0  0  0  0  0  0  0
   -3.1439    0.2353    2.4857 H   0  0  0  0  0  0  0  0  0  0  0  0
   -4.2111    0.5828    1.1216 H   0  0  0  0  0  0  0  0  0  0  0  0
   -4.4540   -0.8847    2.0812 H   0  0  0  0  0  0  0  0  0  0  0  0
   -4.1841   -0.7704   -0.9116 H   0  0  0  0  0  0  0  0  0  0  0  0
   -2.8644   -1.9205   -1.2525 H   0  0  0  0  0  0  0  0  0  0  0  0
   -4.1815   -2.3533   -0.1659 H   0  0  0  0  0  0  0  0  0  0  0  0
   -0.4885   -1.2401   -1.3859 H   0  0  0  0  0  0  0  0  0  0  0  0
    0.2726    0.7016   -3.0144 H   0  0  0  0  0  0  0  0  0  0  0  0
    0.0708    2.3457   -2.3761 H   0  0  0  0  0  0  0  0  0  0  0  0
  2  1  2  0  0  0  0
  3  2  1  0  0  0  0
  4  3  1  0  0  0  0
  5  4  1  0  0  0  0
  6  5  2  0  0  0  0
  7  5  1  0  0  0  0
  8  7  1  0  0  0  0
  9  8  1  0  0  0  0
 10  9  1  0  0  0  0
 11 10  1  0  0  0  0
 12 11  1  0  0  0  0
 13 11  1  0  0  0  0
 14 10  1  0  0  0  0
 14  7  1  0  0  0  0
 15 14  1  0  0  0  0
 15  9  1  0  0  0  0
 16 15  1  0  0  0  0
 17 15  1  0  0  0  0
 17  7  1  0  0  0  0
  1 18  1  0  0  0  0
  1 19  1  0  0  0  0
  2 20  1  0  0  0  0
  3 21  1  0  0  0  0
  3 22  1  0  0  0  0
  4 23  1  0  0  0  0
  8 24  1  0  0  0  0
  8 25  1  0  0  0  0
  9 26  1  0  0  0  0
 10 27  1  0  0  0  0
 11 28  1  0  0  0  0
 12 29  1  0  0  0  0
 12 30  1  0  0  0  0
 12 31  1  0  0  0  0
 13 32  1  0  0  0  0
 13 33  1  0  0  0  0
 13 34  1  0  0  0  0
 14 35  1  0  0  0  0
 17 36  1  0  0  0  0
 17 37  1  0  0  0  0
M  END
>  <energy>
11.899313993817643

$$$$
