COc1ccc(COC(=O)OC2C3C(C(C)(C)O)C4(C)OOC35C4C(OC(C)(C)C)C25COC(C)=O)cc1O
                    3D

 77 81  0  0  0  0  0  0  0  0999 V2000
    5.3307    0.5552   -3.9231 C   0  0  0  0  0  0  0  0  0  0  0  0
    6.0254    0.9958   -2.7572 O   0  0  0  0  0  0  0  0  0  0  0  0
    5.3061    0.7368   -1.6237 C   0  0  0  0  0  0  0  0  0  0  0  0
    5.5819   -0.4237   -0.9052 C   0  0  0  0  0  0  0  0  0  0  0  0
    4.9183   -0.6707    0.2991 C   0  0  0  0  0  0  0  0  0  0  0  0
    3.9992    0.2617    0.8123 C   0  0  0  0  0  0  0  0  0  0  0  0
    3.3500   -0.0065    2.1516 C   0  0  0  0  0  0  0  0  0  0  0  0
    2.4873    1.0634    2.5724 O   0  0  0  0  0  0  0  0  0  0  0  0
    1.1500    0.8551    2.6619 C   0  0  0  0  0  0  0  0  0  0  0  0
    0.4298    1.5066    3.4015 O   0  0  0  0  0  0  0  0  0  0  0  0
    0.7266   -0.1458    1.8433 O   0  0  0  0  0  0  0  0  0  0  0  0
   -0.5695   -0.6808    2.1814 C   0  0  0  0  0  0  0  0  0  0  0  0
   -0.9337   -1.9846    1.4293 C   0  0  0  0  0  0  0  0  0  0  0  0
   -0.5492   -2.4369    0.0131 C   0  0  0  0  0  0  0  0  0  0  0  0
    0.1023   -3.8433    0.0234 C   0  0  0  0  0  0  0  0  0  0  0  0
   -0.8185   -5.0000    0.4177 C   0  0  0  0  0  0  0  0  0  0  0  0
    0.7638   -4.1848   -1.3182 C   0  0  0  0  0  0  0  0  0  0  0  0
    1.1639   -3.8006    0.9947 O   0  0  0  0  0  0  0  0  0  0  0  0
   -1.9078   -2.2191   -0.7167 C   0  0  0  0  0  0  0  0  0  0  0  0
   -1.9170   -2.4155   -2.2185 C   0  0  0  0  0  0  0  0  0  0  0  0
   -2.9793   -3.0294   -0.1003 O   0  0  0  0  0  0  0  0  0  0  0  0
   -3.3414   -2.2557    1.1344 O   0  0  0  0  0  0  0  0  0  0  0  0
   -2.2749   -1.3374    1.0681 C   0  0  0  0  0  0  0  0  0  0  0  0
   -2.2956   -0.7918   -0.3468 C   0  0  0  0  0  0  0  0  0  0  0  0
   -1.6657    0.5267    0.1915 C   0  0  0  0  0  0  0  0  0  0  0  0
   -2.4509    1.7085   -0.1025 O   0  0  0  0  0  0  0  0  0  0  0  0
   -2.2188    2.4924   -1.2755 C   0  0  0  0  0  0  0  0  0  0  0  0
   -1.0544    3.4435   -1.0000 C   0  0  0  0  0  0  0  0  0  0  0  0
   -3.5050    3.3108   -1.4754 C   0  0  0  0  0  0  0  0  0  0  0  0
   -1.9617    1.6384   -2.5200 C   0  0  0  0  0  0  0  0  0  0  0  0
   -1.8836   -0.0175    1.6553 C   0  0  0  0  0  0  0  0  0  0  0  0
   -2.8737    0.5913    2.6169 C   0  0  0  0  0  0  0  0  0  0  0  0
   -2.5869    1.9894    2.7274 O   0  0  0  0  0  0  0  0  0  0  0  0
   -3.4861    2.7115    3.4423 C   0  0  0  0  0  0  0  0  0  0  0  0
   -3.2766    4.1745    3.1970 C   0  0  0  0  0  0  0  0  0  0  0  0
   -4.3896    2.2490    4.1334 O   0  0  0  0  0  0  0  0  0  0  0  0
    3.7499    1.4388    0.0879 C   0  0  0  0  0  0  0  0  0  0  0  0
    4.3996    1.6700   -1.1238 C   0  0  0  0  0  0  0  0  0  0  0  0
    4.1635    2.8190   -1.8249 O   0  0  0  0  0  0  0  0  0  0  0  0
    5.4095   -0.5323   -4.0160 H   0  0  0  0  0  0  0  0  0  0  0  0
    5.8117    1.0128   -4.7921 H   0  0  0  0  0  0  0  0  0  0  0  0
    4.2772    0.8572   -3.9192 H   0  0  0  0  0  0  0  0  0  0  0  0
    6.3363   -1.1178   -1.2665 H   0  0  0  0  0  0  0  0  0  0  0  0
    5.1461   -1.5828    0.8503 H   0  0  0  0  0  0  0  0  0  0  0  0
    2.8411   -0.9779    2.1439 H   0  0  0  0  0  0  0  0  0  0  0  0
    4.1410   -0.0678    2.9102 H   0  0  0  0  0  0  0  0  0  0  0  0
   -0.6158   -0.8719    3.2647 H   0  0  0  0  0  0  0  0  0  0  0  0
   -1.0375   -2.8113    2.1462 H   0  0  0  0  0  0  0  0  0  0  0  0
    0.1939   -1.7266   -0.3857 H   0  0  0  0  0  0  0  0  0  0  0  0
   -1.5947   -5.1805   -0.3321 H   0  0  0  0  0  0  0  0  0  0  0  0
   -0.2414   -5.9267    0.5263 H   0  0  0  0  0  0  0  0  0  0  0  0
   -1.3021   -4.8348    1.3853 H   0  0  0  0  0  0  0  0  0  0  0  0
    1.3925   -5.0789   -1.2174 H   0  0  0  0  0  0  0  0  0  0  0  0
    0.0375   -4.3819   -2.1093 H   0  0  0  0  0  0  0  0  0  0  0  0
    1.4286   -3.3796   -1.6484 H   0  0  0  0  0  0  0  0  0  0  0  0
    1.8939   -3.2737    0.6270 H   0  0  0  0  0  0  0  0  0  0  0  0
   -2.8495   -2.0369   -2.6508 H   0  0  0  0  0  0  0  0  0  0  0  0
   -1.8760   -3.4747   -2.4871 H   0  0  0  0  0  0  0  0  0  0  0  0
   -1.0916   -1.8847   -2.7014 H   0  0  0  0  0  0  0  0  0  0  0  0
   -3.3056   -0.5767   -0.7341 H   0  0  0  0  0  0  0  0  0  0  0  0
   -0.6164    0.6731   -0.0910 H   0  0  0  0  0  0  0  0  0  0  0  0
   -0.1174    2.8935   -0.8652 H   0  0  0  0  0  0  0  0  0  0  0  0
   -1.2221    4.0007   -0.0703 H   0  0  0  0  0  0  0  0  0  0  0  0
   -0.9165    4.1601   -1.8162 H   0  0  0  0  0  0  0  0  0  0  0  0
   -3.4303    3.9919   -2.3281 H   0  0  0  0  0  0  0  0  0  0  0  0
   -4.3655    2.6501   -1.6348 H   0  0  0  0  0  0  0  0  0  0  0  0
   -3.7343    3.9010   -0.5785 H   0  0  0  0  0  0  0  0  0  0  0  0
   -2.7760    0.9213   -2.6775 H   0  0  0  0  0  0  0  0  0  0  0  0
   -1.8722    2.2581   -3.4186 H   0  0  0  0  0  0  0  0  0  0  0  0
   -1.0385    1.0573   -2.4231 H   0  0  0  0  0  0  0  0  0  0  0  0
   -2.8124    0.1222    3.6052 H   0  0  0  0  0  0  0  0  0  0  0  0
   -3.8958    0.4722    2.2400 H   0  0  0  0  0  0  0  0  0  0  0  0
   -2.2400    4.3754    2.9064 H   0  0  0  0  0  0  0  0  0  0  0  0
   -3.4857    4.7361    4.1102 H   0  0  0  0  0  0  0  0  0  0  0  0
   -3.9445    4.5046    2.3957 H   0  0  0  0  0  0  0  0  0  0  0  0
    3.0675    2.1874    0.4798 H   0  0  0  0  0  0  0  0  0  0  0  0
    3.6971    3.4483   -1.2521 H   0  0  0  0  0  0  0  0  0  0  0  0
  2  1  1  0  0  0  0
  3  2  1  0  0  0  0
  4  3  2  0  0  0  0
  5  4  1  0  0  0  0
  6  5  2  0  0  0  0
  7  6  1  0  0  0  0
  8  7  1  0  0  0  0
  9  8  1  0  0  0  0
 10  9  2  0  0  0  0
 11  9  1  0  0  0  0
 12 11  1  0  0  0  0
 13 12  1  0  0  0  0
 14 13  1  0  0  0  0
 15 14  1  0  0  0  0
 16 15  1  0  0  0  0
 17 15  1  0  0  0  0
 18 15  1  0  0  0  0
 19 14  1  0  0  0  0
 20 19  1  0  0  0  0
 21 19  1  0  0  0  0
 22 21  1  0  0  0  0
 23 22  1  0  0  0  0
 23 13  1  0  0  0  0
 24 23  1  0  0  0  0
 24 19  1  0  0  0  0
 25 24  1  0  0  0  0
 26 25  1  0  0  0  0
 27 26  1  0  0  0  0
 28 27  1  0  0  0  0
 29 27  1  0  0  0  0
 30 27  1  0  0  0  0
 31 25  1  0  0  0  0
 31 12  1  0  0  0  0
 31 23  1  0  0  0  0
 32 31  1  0  0  0  0
 33 32  1  0  0  0  0
 34 33  1  0  0  0  0
 35 34  1  0  0  0  0
 36 34  2  0  0  0  0
 37  6  1  0  0  0  0
 38 37  2  0  0  0  0
 38  3  1  0  0  0  0
 39 38  1  0  0  0  0
  1 40  1  0  0  0  0
  1 41  1  0  0  0  0
  1 42  1  0  0  0  0
  4 43  1  0  0  0  0
  5 44  1  0  0  0  0
  7 45  1  0  0  0  0
  7 46  1  0  0  0  0
 12 47  1  0  0  0  0
 13 48  1  0  0  0  0
 14 49  1  0  0  0  0
 16 50  1  0  0  0  0
 16 51  1  0  0  0  0
 16 52  1  0  0  0  0
 17 53  1  0  0  0  0
 17 54  1  0  0  0  0
 17 55  1  0  0  0  0
 18 56  1  0  0  0  0
 20 57  1  0  0  0  0
 20 58  1  0  0  0  0
 20 59  1  0  0  0  0
 24 60  1  0  0  0  0
 25 61  1  0  0  0  0
 28 62  1  0  0  0  0
 28 63  1  0  0  0  0
 28 64  1  0  0  0  0
 29 65  1  0  0  0  0
 29 66  1  0  0  0  0
 29 67  1  0  0  0  0
 30 68  1  0  0  0  0
 30 69  1  0  0  0  0
 30 70  1  0  0  0  0
 32 71  1  0  0  0  0
 32 72  1  0  0  0  0
 35 73  1  0  0  0  0
 35 74  1  0  0  0  0
 35 75  1  0  0  0  0
 37 76  1  0  0  0  0
 39 77  1  0  0  0  0
M  END
>  <energy>
77.113292023404682

$$$$
