CCCCCCCCCC(=O)OC1CC2CC(O)C3(C)C4CCC5C(C)(CC(=O)O)C(C)(C)C(C)(C(Cl)CCC53O)C14C2
                    3D

102106  0  0  0  0  0  0  0  0999 V2000
   -2.9149   -3.7100   -3.3427 C   0  0  0  0  0  0  0  0  0  0  0  0
   -4.4232   -3.5579   -3.4724 C   0  0  0  0  0  0  0  0  0  0  0  0
   -4.9496   -2.2640   -2.8532 C   0  0  0  0  0  0  0  0  0  0  0  0
   -4.9285   -2.2710   -1.3230 C   0  0  0  0  0  0  0  0  0  0  0  0
   -5.3631   -0.9101   -0.7747 C   0  0  0  0  0  0  0  0  0  0  0  0
   -5.4519   -0.9205    0.7514 C   0  0  0  0  0  0  0  0  0  0  0  0
   -5.7321    0.4615    1.3533 C   0  0  0  0  0  0  0  0  0  0  0  0
   -4.6797    1.5331    1.0507 C   0  0  0  0  0  0  0  0  0  0  0  0
   -3.3088    1.2085    1.6357 C   0  0  0  0  0  0  0  0  0  0  0  0
   -2.2393    1.9585    0.8824 C   0  0  0  0  0  0  0  0  0  0  0  0
   -1.9947    3.1349    1.0854 O   0  0  0  0  0  0  0  0  0  0  0  0
   -1.6423    1.1366   -0.0208 O   0  0  0  0  0  0  0  0  0  0  0  0
   -0.7211    1.5494   -1.0416 C   0  0  0  0  0  0  0  0  0  0  0  0
   -0.6175    3.0908   -1.3982 C   0  0  0  0  0  0  0  0  0  0  0  0
    0.8345    3.3318   -1.9143 C   0  0  0  0  0  0  0  0  0  0  0  0
    1.7932    4.2546   -0.9354 C   0  0  0  0  0  0  0  0  0  0  0  0
    2.6946    3.6554    0.3330 C   0  0  0  0  0  0  0  0  0  0  0  0
    3.9278    4.3642    0.4571 O   0  0  0  0  0  0  0  0  0  0  0  0
    2.9175    2.1052    0.1171 C   0  0  0  0  0  0  0  0  0  0  0  0
    3.8638    2.2579   -1.1443 C   0  0  0  0  0  0  0  0  0  0  0  0
    1.4142    1.7306    0.2665 C   0  0  0  0  0  0  0  0  0  0  0  0
    0.8703    1.5944    1.7132 C   0  0  0  0  0  0  0  0  0  0  0  0
    1.8805    1.2009    2.7330 C   0  0  0  0  0  0  0  0  0  0  0  0
    2.7863    0.1839    2.0757 C   0  0  0  0  0  0  0  0  0  0  0  0
    2.0562   -1.2603    1.7887 C   0  0  0  0  0  0  0  0  0  0  0  0
    3.1872   -2.3479    1.7286 C   0  0  0  0  0  0  0  0  0  0  0  0
    1.2837   -1.6934    3.1285 C   0  0  0  0  0  0  0  0  0  0  0  0
    2.1044   -1.8285    4.3986 C   0  0  0  0  0  0  0  0  0  0  0  0
    2.4017   -0.9408    5.1785 O   0  0  0  0  0  0  0  0  0  0  0  0
    2.4988   -3.0979    4.6303 O   0  0  0  0  0  0  0  0  0  0  0  0
    0.9682   -1.4679    0.4861 C   0  0  0  0  0  0  0  0  0  0  0  0
   -0.5316   -1.4221    0.9755 C   0  0  0  0  0  0  0  0  0  0  0  0
    1.0132   -3.0197    0.1088 C   0  0  0  0  0  0  0  0  0  0  0  0
    1.1835   -0.5709   -0.9544 C   0  0  0  0  0  0  0  0  0  0  0  0
    0.1701   -1.1635   -2.0309 C   0  0  0  0  0  0  0  0  0  0  0  0
    2.6447   -0.9539   -1.5669 C   0  0  0  0  0  0  0  0  0  0  0  0
    2.7855   -0.6605   -3.3872 Cl  0  0  0  0  0  0  0  0  0  0  0  0
    4.0768   -0.7611   -0.9882 C   0  0  0  0  0  0  0  0  0  0  0  0
    4.5411    0.0120    0.2573 C   0  0  0  0  0  0  0  0  0  0  0  0
    3.6563    1.0184    1.0230 C   0  0  0  0  0  0  0  0  0  0  0  0
    4.5960    1.7652    1.8416 O   0  0  0  0  0  0  0  0  0  0  0  0
    0.8033    1.0320   -0.9323 C   0  0  0  0  0  0  0  0  0  0  0  0
    1.2252    1.8651   -2.2156 C   0  0  0  0  0  0  0  0  0  0  0  0
   -2.5897   -4.6366   -3.8233 H   0  0  0  0  0  0  0  0  0  0  0  0
   -2.3969   -2.8779   -3.8313 H   0  0  0  0  0  0  0  0  0  0  0  0
   -2.5980   -3.7474   -2.2977 H   0  0  0  0  0  0  0  0  0  0  0  0
   -4.9255   -4.4229   -3.0240 H   0  0  0  0  0  0  0  0  0  0  0  0
   -4.6782   -3.5596   -4.5395 H   0  0  0  0  0  0  0  0  0  0  0  0
   -4.3695   -1.4144   -3.2342 H   0  0  0  0  0  0  0  0  0  0  0  0
   -5.9843   -2.1147   -3.1854 H   0  0  0  0  0  0  0  0  0  0  0  0
   -5.5942   -3.0568   -0.9466 H   0  0  0  0  0  0  0  0  0  0  0  0
   -3.9227   -2.4940   -0.9522 H   0  0  0  0  0  0  0  0  0  0  0  0
   -6.3370   -0.6278   -1.1927 H   0  0  0  0  0  0  0  0  0  0  0  0
   -4.6356   -0.1633   -1.1148 H   0  0  0  0  0  0  0  0  0  0  0  0
   -6.2627   -1.5946    1.0511 H   0  0  0  0  0  0  0  0  0  0  0  0
   -4.5371   -1.3436    1.1764 H   0  0  0  0  0  0  0  0  0  0  0  0
   -6.7031    0.8179    0.9901 H   0  0  0  0  0  0  0  0  0  0  0  0
   -5.8239    0.3581    2.4405 H   0  0  0  0  0  0  0  0  0  0  0  0
   -4.6144    1.7087   -0.0309 H   0  0  0  0  0  0  0  0  0  0  0  0
   -5.0187    2.4881    1.4751 H   0  0  0  0  0  0  0  0  0  0  0  0
   -3.2554    1.4971    2.6931 H   0  0  0  0  0  0  0  0  0  0  0  0
   -3.0751    0.1415    1.6035 H   0  0  0  0  0  0  0  0  0  0  0  0
   -1.1588    1.0907   -1.9368 H   0  0  0  0  0  0  0  0  0  0  0  0
   -1.3403    3.3016   -2.1961 H   0  0  0  0  0  0  0  0  0  0  0  0
   -0.8400    3.7921   -0.5993 H   0  0  0  0  0  0  0  0  0  0  0  0
    0.7684    3.8896   -2.8571 H   0  0  0  0  0  0  0  0  0  0  0  0
    1.1642    5.0539   -0.5170 H   0  0  0  0  0  0  0  0  0  0  0  0
    2.4869    4.7895   -1.5994 H   0  0  0  0  0  0  0  0  0  0  0  0
    2.1602    3.8710    1.2665 H   0  0  0  0  0  0  0  0  0  0  0  0
    3.7047    5.3095    0.5124 H   0  0  0  0  0  0  0  0  0  0  0  0
    3.6450    3.0841   -1.8264 H   0  0  0  0  0  0  0  0  0  0  0  0
    3.9320    1.4007   -1.7924 H   0  0  0  0  0  0  0  0  0  0  0  0
    4.8921    2.4788   -0.8212 H   0  0  0  0  0  0  0  0  0  0  0  0
    0.8696    2.6591    0.2048 H   0  0  0  0  0  0  0  0  0  0  0  0
    0.0258    0.9404    1.7625 H   0  0  0  0  0  0  0  0  0  0  0  0
    0.4562    2.5520    2.0648 H   0  0  0  0  0  0  0  0  0  0  0  0
    2.4506    2.0830    3.0546 H   0  0  0  0  0  0  0  0  0  0  0  0
    1.3921    0.8514    3.6437 H   0  0  0  0  0  0  0  0  0  0  0  0
    3.5153   -0.0555    2.8666 H   0  0  0  0  0  0  0  0  0  0  0  0
    3.6293   -2.4615    0.7484 H   0  0  0  0  0  0  0  0  0  0  0  0
    2.8176   -3.3447    1.9968 H   0  0  0  0  0  0  0  0  0  0  0  0
    3.9986   -2.1336    2.4330 H   0  0  0  0  0  0  0  0  0  0  0  0
    0.4645   -1.0103    3.3737 H   0  0  0  0  0  0  0  0  0  0  0  0
    0.8012   -2.6693    2.9829 H   0  0  0  0  0  0  0  0  0  0  0  0
    3.0361   -3.0408    5.4472 H   0  0  0  0  0  0  0  0  0  0  0  0
   -1.2558   -1.4000    0.1624 H   0  0  0  0  0  0  0  0  0  0  0  0
   -0.7883   -0.6213    1.6510 H   0  0  0  0  0  0  0  0  0  0  0  0
   -0.8021   -2.3258    1.5386 H   0  0  0  0  0  0  0  0  0  0  0  0
    0.2011   -3.3035   -0.5685 H   0  0  0  0  0  0  0  0  0  0  0  0
    0.8659   -3.6503    0.9937 H   0  0  0  0  0  0  0  0  0  0  0  0
    1.9472   -3.3467   -0.3453 H   0  0  0  0  0  0  0  0  0  0  0  0
   -0.8681   -1.1776   -1.7002 H   0  0  0  0  0  0  0  0  0  0  0  0
    0.4321   -2.1844   -2.3262 H   0  0  0  0  0  0  0  0  0  0  0  0
    0.1618   -0.5801   -2.9568 H   0  0  0  0  0  0  0  0  0  0  0  0
    2.5936   -2.0405   -1.6346 H   0  0  0  0  0  0  0  0  0  0  0  0
    4.7241   -0.3984   -1.8035 H   0  0  0  0  0  0  0  0  0  0  0  0
    4.5079   -1.7673   -0.8938 H   0  0  0  0  0  0  0  0  0  0  0  0
    4.9728   -0.6969    0.9761 H   0  0  0  0  0  0  0  0  0  0  0  0
    5.4660    0.5298   -0.0379 H   0  0  0  0  0  0  0  0  0  0  0  0
    4.7481    2.6415    1.4403 H   0  0  0  0  0  0  0  0  0  0  0  0
    0.6361    1.5327   -3.0850 H   0  0  0  0  0  0  0  0  0  0  0  0
    2.2278    1.7769   -2.5835 H   0  0  0  0  0  0  0  0  0  0  0  0
  2  1  1  0  0  0  0
  3  2  1  0  0  0  0
  4  3  1  0  0  0  0
  5  4  1  0  0  0  0
  6  5  1  0  0  0  0
  7  6  1  0  0  0  0
  8  7  1  0  0  0  0
  9  8  1  0  0  0  0
 10  9  1  0  0  0  0
 11 10  2  0  0  0  0
 12 10  1  0  0  0  0
 13 12  1  0  0  0  0
 14 13  1  0  0  0  0
 15 14  1  0  0  0  0
 16 15  1  0  0  0  0
 17 16  1  0  0  0  0
 18 17  1  0  0  0  0
 19 17  1  0  0  0  0
 20 19  1  0  0  0  0
 21 19  1  0  0  0  0
 22 21  1  0  0  0  0
 23 22  1  0  0  0  0
 24 23  1  0  0  0  0
 25 24  1  0  0  0  0
 26 25  1  0  0  0  0
 27 25  1  0  0  0  0
 28 27  1  0  0  0  0
 29 28  2  0  0  0  0
 30 28  1  0  0  0  0
 31 25  1  0  0  0  0
 32 31  1  0  0  0  0
 33 31  1  0  0  0  0
 34 31  1  0  0  0  0
 35 34  1  0  0  0  0
 36 34  1  0  0  0  0
 37 36  1  0  0  0  0
 38 36  1  0  0  0  0
 39 38  1  0  0  0  0
 40 39  1  0  0  0  0
 40 24  1  0  0  0  0
 40 19  1  0  0  0  0
 41 40  1  0  0  0  0
 42 34  1  0  0  0  0
 42 13  1  0  0  0  0
 42 21  1  0  0  0  0
 43 42  1  0  0  0  0
 43 15  1  0  0  0  0
  1 44  1  0  0  0  0
  1 45  1  0  0  0  0
  1 46  1  0  0  0  0
  2 47  1  0  0  0  0
  2 48  1  0  0  0  0
  3 49  1  0  0  0  0
  3 50  1  0  0  0  0
  4 51  1  0  0  0  0
  4 52  1  0  0  0  0
  5 53  1  0  0  0  0
  5 54  1  0  0  0  0
  6 55  1  0  0  0  0
  6 56  1  0  0  0  0
  7 57  1  0  0  0  0
  7 58  1  0  0  0  0
  8 59  1  0  0  0  0
  8 60  1  0  0  0  0
  9 61  1  0  0  0  0
  9 62  1  0  0  0  0
 13 63  1  0  0  0  0
 14 64  1  0  0  0  0
 14 65  1  0  0  0  0
 15 66  1  0  0  0  0
 16 67  1  0  0  0  0
 16 68  1  0  0  0  0
 17 69  1  0  0  0  0
 18 70  1  0  0  0  0
 20 71  1  0  0  0  0
 20 72  1  0  0  0  0
 20 73  1  0  0  0  0
 21 74  1  0  0  0  0
 22 75  1  0  0  0  0
 22 76  1  0  0  0  0
 23 77  1  0  0  0  0
 23 78  1  0  0  0  0
 24 79  1  0  0  0  0
 26 80  1  0  0  0  0
 26 81  1  0  0  0  0
 26 82  1  0  0  0  0
 27 83  1  0  0  0  0
 27 84  1  0  0  0  0
 30 85  1  0  0  0  0
 32 86  1  0  0  0  0
 32 87  1  0  0  0  0
 32 88  1  0  0  0  0
 33 89  1  0  0  0  0
 33 90  1  0  0  0  0
 33 91  1  0  0  0  0
 35 92  1  0  0  0  0
 35 93  1  0  0  0  0
 35 94  1  0  0  0  0
 36 95  1  0  0  0  0
 38 96  1  0  0  0  0
 38 97  1  0  0  0  0
 39 98  1  0  0  0  0
 39 99  1  0  0  0  0
 41100  1  0  0  0  0
 43101  1  0  0  0  0
 43102  1  0  0  0  0
M  END
>  <energy>
362.06284335884311

$$$$
