COC=CC1CC23CN4CC5C(C2CCCC(C)C53C)C14O
                    3D

 51 55  0  0  0  0  0  0  0  0999 V2000
    6.3639    1.9525    0.1204 C   0  0  0  0  0  0  0  0  0  0  0  0
    5.4611    0.9119   -0.2422 O   0  0  0  0  0  0  0  0  0  0  0  0
    4.1723    1.1794    0.1316 C   0  0  0  0  0  0  0  0  0  0  0  0
    3.2104    0.2610   -0.0058 C   0  0  0  0  0  0  0  0  0  0  0  0
    1.7767    0.4627    0.4393 C   0  0  0  0  0  0  0  0  0  0  0  0
    0.7252    0.9217   -0.8099 C   0  0  0  0  0  0  0  0  0  0  0  0
   -0.3997   -0.0762   -0.5778 C   0  0  0  0  0  0  0  0  0  0  0  0
    0.6528   -1.3699   -0.8970 C   0  0  0  0  0  0  0  0  0  0  0  0
    0.9612   -2.0498    0.3471 N   0  0  0  0  0  0  0  0  0  0  0  0
   -0.2840   -2.7615    0.7542 C   0  0  0  0  0  0  0  0  0  0  0  0
   -1.3481   -1.6521    0.8121 C   0  0  0  0  0  0  0  0  0  0  0  0
   -0.3932   -0.6853    1.6591 C   0  0  0  0  0  0  0  0  0  0  0  0
   -0.7389    0.5583    0.9809 C   0  0  0  0  0  0  0  0  0  0  0  0
   -2.0194    1.0913    1.6413 C   0  0  0  0  0  0  0  0  0  0  0  0
   -2.9999    1.7844    0.7534 C   0  0  0  0  0  0  0  0  0  0  0  0
   -3.7778    0.7083    0.0521 C   0  0  0  0  0  0  0  0  0  0  0  0
   -2.9751   -0.0250   -1.0090 C   0  0  0  0  0  0  0  0  0  0  0  0
   -2.6936    0.9258   -2.1985 C   0  0  0  0  0  0  0  0  0  0  0  0
   -1.6892   -0.9055   -0.6706 C   0  0  0  0  0  0  0  0  0  0  0  0
   -1.8766   -2.0429   -1.7540 C   0  0  0  0  0  0  0  0  0  0  0  0
    1.1068   -0.8965    1.2451 C   0  0  0  0  0  0  0  0  0  0  0  0
    1.8869   -1.2569    2.3543 O   0  0  0  0  0  0  0  0  0  0  0  0
    7.3764    1.6298   -0.1387 H   0  0  0  0  0  0  0  0  0  0  0  0
    6.1379    2.8646   -0.4412 H   0  0  0  0  0  0  0  0  0  0  0  0
    6.3299    2.1450    1.1985 H   0  0  0  0  0  0  0  0  0  0  0  0
    3.9941    2.1653    0.5409 H   0  0  0  0  0  0  0  0  0  0  0  0
    3.4883   -0.7080   -0.4129 H   0  0  0  0  0  0  0  0  0  0  0  0
    1.8193    1.2751    1.1798 H   0  0  0  0  0  0  0  0  0  0  0  0
    0.4281    1.9715   -0.6887 H   0  0  0  0  0  0  0  0  0  0  0  0
    1.2085    0.8591   -1.7922 H   0  0  0  0  0  0  0  0  0  0  0  0
    1.5861   -1.0742   -1.3926 H   0  0  0  0  0  0  0  0  0  0  0  0
    0.3396   -2.0503   -1.6864 H   0  0  0  0  0  0  0  0  0  0  0  0
   -0.5235   -3.5908    0.0865 H   0  0  0  0  0  0  0  0  0  0  0  0
   -0.1352   -3.2149    1.7437 H   0  0  0  0  0  0  0  0  0  0  0  0
   -2.2656   -1.9391    1.3319 H   0  0  0  0  0  0  0  0  0  0  0  0
   -0.5581   -0.7551    2.7397 H   0  0  0  0  0  0  0  0  0  0  0  0
   -0.0771    1.3858    1.2447 H   0  0  0  0  0  0  0  0  0  0  0  0
   -2.5349    0.3177    2.2276 H   0  0  0  0  0  0  0  0  0  0  0  0
   -1.7098    1.8136    2.4135 H   0  0  0  0  0  0  0  0  0  0  0  0
   -2.5112    2.4872    0.0731 H   0  0  0  0  0  0  0  0  0  0  0  0
   -3.6909    2.3723    1.3708 H   0  0  0  0  0  0  0  0  0  0  0  0
   -4.6569    1.1718   -0.4160 H   0  0  0  0  0  0  0  0  0  0  0  0
   -4.1840   -0.0170    0.7696 H   0  0  0  0  0  0  0  0  0  0  0  0
   -3.7458   -0.7074   -1.3939 H   0  0  0  0  0  0  0  0  0  0  0  0
   -3.6122    1.4349   -2.5122 H   0  0  0  0  0  0  0  0  0  0  0  0
   -2.3210    0.3848   -3.0726 H   0  0  0  0  0  0  0  0  0  0  0  0
   -1.9596    1.6961   -1.9480 H   0  0  0  0  0  0  0  0  0  0  0  0
   -2.9020   -2.4344   -1.7481 H   0  0  0  0  0  0  0  0  0  0  0  0
   -1.3004   -2.9559   -1.6157 H   0  0  0  0  0  0  0  0  0  0  0  0
   -1.6617   -1.6725   -2.7618 H   0  0  0  0  0  0  0  0  0  0  0  0
    2.5197   -1.8909    1.9745 H   0  0  0  0  0  0  0  0  0  0  0  0
  2  1  1  0  0  0  0
  3  2  1  0  0  0  0
  4  3  2  0  0  0  0
  5  4  1  0  0  0  0
  6  5  1  0  0  0  0
  7  6  1  0  0  0  0
  8  7  1  0  0  0  0
  9  8  1  0  0  0  0
 10  9  1  0  0  0  0
 11 10  1  0  0  0  0
 12 11  1  0  0  0  0
 13 12  1  0  0  0  0
 13  7  1  0  0  0  0
 14 13  1  0  0  0  0
 15 14  1  0  0  0  0
 16 15  1  0  0  0  0
 17 16  1  0  0  0  0
 18 17  1  0  0  0  0
 19 17  1  0  0  0  0
 19 11  1  0  0  0  0
 19  7  1  0  0  0  0
 20 19  1  0  0  0  0
 21 12  1  0  0  0  0
 21  5  1  0  0  0  0
 21  9  1  0  0  0  0
 22 21  1  0  0  0  0
  1 23  1  0  0  0  0
  1 24  1  0  0  0  0
  1 25  1  0  0  0  0
  3 26  1  0  0  0  0
  4 27  1  0  0  0  0
  5 28  1  0  0  0  0
  6 29  1  0  0  0  0
  6 30  1  0  0  0  0
  8 31  1  0  0  0  0
  8 32  1  0  0  0  0
 10 33  1  0  0  0  0
 10 34  1  0  0  0  0
 11 35  1  0  0  0  0
 12 36  1  0  0  0  0
 13 37  1  0  0  0  0
 14 38  1  0  0  0  0
 14 39  1  0  0  0  0
 15 40  1  0  0  0  0
 15 41  1  0  0  0  0
 16 42  1  0  0  0  0
 16 43  1  0  0  0  0
 17 44  1  0  0  0  0
 18 45  1  0  0  0  0
 18 46  1  0  0  0  0
 18 47  1  0  0  0  0
 20 48  1  0  0  0  0
 20 49  1  0  0  0  0
 20 50  1  0  0  0  0
 22 51  1  0  0  0  0
M  END
>  <energy>
265.31852216436999

$$$$
