CSN1Cc2c3[nH]c(=N)n2C(CC2CCCCC2)=NC1=N3
                    3D

 41 44  0  0  0  0  0  0  0  0999 V2000
   -1.5112   -2.4754    1.7228 C   0  0  0  0  0  0  0  0  0  0  0  0
   -3.2695   -2.0593    1.7171 S   0  0  0  0  0  0  0  0  0  0  0  0
   -3.2217   -0.6402    0.8560 N   0  0  0  0  0  0  0  0  0  0  0  0
   -3.1852   -0.6272   -0.5996 C   0  0  0  0  0  0  0  0  0  0  0  0
   -2.9322    0.8235   -1.0060 C   0  0  0  0  0  0  0  0  0  0  0  0
   -3.5570    1.8346   -0.3221 C   0  0  0  0  0  0  0  0  0  0  0  0
   -3.0026    3.0313   -0.8299 N   0  0  0  0  0  0  0  0  0  0  0  0
   -1.7367    2.7136   -1.3132 C   0  0  0  0  0  0  0  0  0  0  0  0
   -0.8962    3.5271   -1.8461 N   0  0  0  0  0  0  0  0  0  0  0  0
   -1.5579    1.3322   -0.9920 N   0  0  0  0  0  0  0  0  0  0  0  0
   -0.8993    1.1191    0.2982 C   0  0  0  0  0  0  0  0  0  0  0  0
    0.6094    1.3282    0.3549 C   0  0  0  0  0  0  0  0  0  0  0  0
    1.3533    0.0033    0.1273 C   0  0  0  0  0  0  0  0  0  0  0  0
    2.5058   -0.1650    1.1282 C   0  0  0  0  0  0  0  0  0  0  0  0
    3.2676   -1.4700    0.8974 C   0  0  0  0  0  0  0  0  0  0  0  0
    3.7816   -1.5761   -0.5359 C   0  0  0  0  0  0  0  0  0  0  0  0
    2.6632   -1.3692   -1.5562 C   0  0  0  0  0  0  0  0  0  0  0  0
    1.9006   -0.0698   -1.3068 C   0  0  0  0  0  0  0  0  0  0  0  0
   -1.4871    0.8233    1.4471 N   0  0  0  0  0  0  0  0  0  0  0  0
   -2.8595    0.5932    1.3685 C   0  0  0  0  0  0  0  0  0  0  0  0
   -3.6403    1.6204    1.0634 N   0  0  0  0  0  0  0  0  0  0  0  0
   -1.1207   -2.5459    0.7040 H   0  0  0  0  0  0  0  0  0  0  0  0
   -0.9322   -1.7396    2.2855 H   0  0  0  0  0  0  0  0  0  0  0  0
   -1.3921   -3.4503    2.2082 H   0  0  0  0  0  0  0  0  0  0  0  0
   -4.1440   -0.9599   -1.0125 H   0  0  0  0  0  0  0  0  0  0  0  0
   -2.3929   -1.2736   -0.9948 H   0  0  0  0  0  0  0  0  0  0  0  0
   -2.9814    3.7241   -0.0838 H   0  0  0  0  0  0  0  0  0  0  0  0
   -1.3463    4.4435   -1.9390 H   0  0  0  0  0  0  0  0  0  0  0  0
    0.9101    2.0879   -0.3731 H   0  0  0  0  0  0  0  0  0  0  0  0
    0.8340    1.7363    1.3475 H   0  0  0  0  0  0  0  0  0  0  0  0
    0.6601   -0.8363    0.2706 H   0  0  0  0  0  0  0  0  0  0  0  0
    3.2029    0.6793    1.0359 H   0  0  0  0  0  0  0  0  0  0  0  0
    2.1195   -0.1521    2.1531 H   0  0  0  0  0  0  0  0  0  0  0  0
    4.1105   -1.5305    1.5941 H   0  0  0  0  0  0  0  0  0  0  0  0
    2.6128   -2.3246    1.1117 H   0  0  0  0  0  0  0  0  0  0  0  0
    4.2505   -2.5553   -0.6932 H   0  0  0  0  0  0  0  0  0  0  0  0
    4.5641   -0.8223   -0.6960 H   0  0  0  0  0  0  0  0  0  0  0  0
    1.9686   -2.2188   -1.5133 H   0  0  0  0  0  0  0  0  0  0  0  0
    3.0887   -1.3538   -2.5670 H   0  0  0  0  0  0  0  0  0  0  0  0
    2.5801    0.7757   -1.4824 H   0  0  0  0  0  0  0  0  0  0  0  0
    1.0823    0.0184   -2.0286 H   0  0  0  0  0  0  0  0  0  0  0  0
  2  1  1  0  0  0  0
  3  2  1  0  0  0  0
  4  3  1  0  0  0  0
  5  4  1  0  0  0  0
  6  5  2  0  0  0  0
  7  6  1  0  0  0  0
  8  7  1  0  0  0  0
  9  8  2  0  0  0  0
 10  8  1  0  0  0  0
 10  5  1  0  0  0  0
 11 10  1  0  0  0  0
 12 11  1  0  0  0  0
 13 12  1  0  0  0  0
 14 13  1  0  0  0  0
 15 14  1  0  0  0  0
 16 15  1  0  0  0  0
 17 16  1  0  0  0  0
 18 17  1  0  0  0  0
 18 13  1  0  0  0  0
 19 11  2  0  0  0  0
 20 19  1  0  0  0  0
 20  3  1  0  0  0  0
 21 20  2  0  0  0  0
 21  6  1  0  0  0  0
  1 22  1  0  0  0  0
  1 23  1  0  0  0  0
  1 24  1  0  0  0  0
  4 25  1  0  0  0  0
  4 26  1  0  0  0  0
  7 27  1  0  0  0  0
  9 28  1  0  0  0  0
 12 29  1  0  0  0  0
 12 30  1  0  0  0  0
 13 31  1  0  0  0  0
 14 32  1  0  0  0  0
 14 33  1  0  0  0  0
 15 34  1  0  0  0  0
 15 35  1  0  0  0  0
 16 36  1  0  0  0  0
 16 37  1  0  0  0  0
 17 38  1  0  0  0  0
 17 39  1  0  0  0  0
 18 40  1  0  0  0  0
 18 41  1  0  0  0  0
M  END
>  <energy>
67.833084625094273

$$$$
