COc1cocc1SCC(=O)C12C(=O)C3(Cl)C4(C)CC(CCC1O)(CC23C(=O)O)O4
                    3D

 51 55  0  0  0  0  0  0  0  0999 V2000
   -4.1437   -0.6201   -1.3881 C   0  0  0  0  0  0  0  0  0  0  0  0
   -3.4878    0.6105   -1.6691 O   0  0  0  0  0  0  0  0  0  0  0  0
   -3.7910    1.6139   -0.8078 C   0  0  0  0  0  0  0  0  0  0  0  0
   -4.8460    1.6906    0.0768 C   0  0  0  0  0  0  0  0  0  0  0  0
   -4.8024    2.8631    0.7659 O   0  0  0  0  0  0  0  0  0  0  0  0
   -3.7139    3.5454    0.3184 C   0  0  0  0  0  0  0  0  0  0  0  0
   -3.0653    2.8154   -0.6500 C   0  0  0  0  0  0  0  0  0  0  0  0
   -1.6266    3.2699   -1.5163 S   0  0  0  0  0  0  0  0  0  0  0  0
   -0.3614    3.0350   -0.2336 C   0  0  0  0  0  0  0  0  0  0  0  0
    0.7247    2.1260   -0.7858 C   0  0  0  0  0  0  0  0  0  0  0  0
    1.5215    2.5999   -1.6228 O   0  0  0  0  0  0  0  0  0  0  0  0
    0.8324    0.5729   -0.4317 C   0  0  0  0  0  0  0  0  0  0  0  0
   -0.0772    0.2424    0.7772 C   0  0  0  0  0  0  0  0  0  0  0  0
   -1.2769    0.3333    0.9471 O   0  0  0  0  0  0  0  0  0  0  0  0
    1.1371   -0.2837    1.7190 C   0  0  0  0  0  0  0  0  0  0  0  0
    1.2156    0.5864    3.2828 Cl  0  0  0  0  0  0  0  0  0  0  0  0
    1.0883   -1.8693    1.8092 C   0  0  0  0  0  0  0  0  0  0  0  0
    0.2468   -2.4818    2.9067 C   0  0  0  0  0  0  0  0  0  0  0  0
    2.3526   -2.7210    1.4342 C   0  0  0  0  0  0  0  0  0  0  0  0
    1.9968   -2.2125   -0.0172 C   0  0  0  0  0  0  0  0  0  0  0  0
    1.6994   -2.6336   -1.4340 C   0  0  0  0  0  0  0  0  0  0  0  0
    0.5221   -1.7108   -1.9396 C   0  0  0  0  0  0  0  0  0  0  0  0
    0.6556   -0.1730   -1.8075 C   0  0  0  0  0  0  0  0  0  0  0  0
    1.7705    0.1662   -2.6516 O   0  0  0  0  0  0  0  0  0  0  0  0
    2.8828   -0.9405   -0.0655 C   0  0  0  0  0  0  0  0  0  0  0  0
    2.0646    0.1836    0.5225 C   0  0  0  0  0  0  0  0  0  0  0  0
    2.9703    1.4200    0.9361 C   0  0  0  0  0  0  0  0  0  0  0  0
    2.6029    2.5699    1.1465 O   0  0  0  0  0  0  0  0  0  0  0  0
    4.2655    1.1102    1.1686 O   0  0  0  0  0  0  0  0  0  0  0  0
    0.5919   -2.2455    0.5240 O   0  0  0  0  0  0  0  0  0  0  0  0
   -5.2230   -0.5358   -1.5602 H   0  0  0  0  0  0  0  0  0  0  0  0
   -3.7524   -1.3746   -2.0791 H   0  0  0  0  0  0  0  0  0  0  0  0
   -3.9323   -0.9577   -0.3653 H   0  0  0  0  0  0  0  0  0  0  0  0
   -5.6701    1.0417    0.3312 H   0  0  0  0  0  0  0  0  0  0  0  0
   -3.5424    4.5066    0.7806 H   0  0  0  0  0  0  0  0  0  0  0  0
   -0.7599    2.6704    0.7091 H   0  0  0  0  0  0  0  0  0  0  0  0
    0.1010    4.0054   -0.0170 H   0  0  0  0  0  0  0  0  0  0  0  0
    0.1090   -3.5596    2.7586 H   0  0  0  0  0  0  0  0  0  0  0  0
    0.7291   -2.3502    3.8816 H   0  0  0  0  0  0  0  0  0  0  0  0
   -0.7483   -2.0299    2.9518 H   0  0  0  0  0  0  0  0  0  0  0  0
    2.2473   -3.8060    1.5577 H   0  0  0  0  0  0  0  0  0  0  0  0
    3.2716   -2.4063    1.9347 H   0  0  0  0  0  0  0  0  0  0  0  0
    2.5687   -2.5448   -2.0950 H   0  0  0  0  0  0  0  0  0  0  0  0
    1.3667   -3.6804   -1.4858 H   0  0  0  0  0  0  0  0  0  0  0  0
   -0.4247   -2.0230   -1.4790 H   0  0  0  0  0  0  0  0  0  0  0  0
    0.4100   -1.9387   -3.0087 H   0  0  0  0  0  0  0  0  0  0  0  0
   -0.2419    0.2396   -2.2874 H   0  0  0  0  0  0  0  0  0  0  0  0
    1.8090    1.1439   -2.7356 H   0  0  0  0  0  0  0  0  0  0  0  0
    3.8202   -1.1116    0.4836 H   0  0  0  0  0  0  0  0  0  0  0  0
    3.2399   -0.6992   -1.0691 H   0  0  0  0  0  0  0  0  0  0  0  0
    4.6734    1.9473    1.4788 H   0  0  0  0  0  0  0  0  0  0  0  0
  2  1  1  0  0  0  0
  3  2  1  0  0  0  0
  4  3  2  0  0  0  0
  5  4  1  0  0  0  0
  6  5  1  0  0  0  0
  7  6  2  0  0  0  0
  7  3  1  0  0  0  0
  8  7  1  0  0  0  0
  9  8  1  0  0  0  0
 10  9  1  0  0  0  0
 11 10  2  0  0  0  0
 12 10  1  0  0  0  0
 13 12  1  0  0  0  0
 14 13  2  0  0  0  0
 15 13  1  0  0  0  0
 16 15  1  0  0  0  0
 17 15  1  0  0  0  0
 18 17  1  0  0  0  0
 19 17  1  0  0  0  0
 20 19  1  0  0  0  0
 21 20  1  0  0  0  0
 22 21  1  0  0  0  0
 23 22  1  0  0  0  0
 23 12  1  0  0  0  0
 24 23  1  0  0  0  0
 25 20  1  0  0  0  0
 26 25  1  0  0  0  0
 26 12  1  0  0  0  0
 26 15  1  0  0  0  0
 27 26  1  0  0  0  0
 28 27  2  0  0  0  0
 29 27  1  0  0  0  0
 30 20  1  0  0  0  0
 30 17  1  0  0  0  0
  1 31  1  0  0  0  0
  1 32  1  0  0  0  0
  1 33  1  0  0  0  0
  4 34  1  0  0  0  0
  6 35  1  0  0  0  0
  9 36  1  0  0  0  0
  9 37  1  0  0  0  0
 18 38  1  0  0  0  0
 18 39  1  0  0  0  0
 18 40  1  0  0  0  0
 19 41  1  0  0  0  0
 19 42  1  0  0  0  0
 21 43  1  0  0  0  0
 21 44  1  0  0  0  0
 22 45  1  0  0  0  0
 22 46  1  0  0  0  0
 23 47  1  0  0  0  0
 24 48  1  0  0  0  0
 25 49  1  0  0  0  0
 25 50  1  0  0  0  0
 29 51  1  0  0  0  0
M  END
>  <energy>
49.203120210227581

$$$$
