NCCCCCNCCCCNc1ccc2c(O)c1-c1c-2ncc([N+](=O)[O-])c1N
                    3D

 57 59  0  0  0  0  0  0  0  0999 V2000
   -2.0768    4.1538   -0.7383 N   0  0  0  0  0  0  0  0  0  0  0  0
   -3.2496    3.4454   -0.2405 C   0  0  0  0  0  0  0  0  0  0  0  0
   -2.9468    1.9612   -0.0450 C   0  0  0  0  0  0  0  0  0  0  0  0
   -4.1794    1.2022    0.4619 C   0  0  0  0  0  0  0  0  0  0  0  0
   -3.8910   -0.2896    0.6429 C   0  0  0  0  0  0  0  0  0  0  0  0
   -3.9293   -1.0654   -0.6818 C   0  0  0  0  0  0  0  0  0  0  0  0
   -3.2182   -2.3390   -0.5467 N   0  0  0  0  0  0  0  0  0  0  0  0
   -1.7838   -2.1680   -0.7947 C   0  0  0  0  0  0  0  0  0  0  0  0
   -0.9943   -3.3340   -0.1956 C   0  0  0  0  0  0  0  0  0  0  0  0
    0.3108   -2.8816    0.4764 C   0  0  0  0  0  0  0  0  0  0  0  0
    0.0616   -2.1354    1.7972 C   0  0  0  0  0  0  0  0  0  0  0  0
    0.3320   -0.7060    1.6718 N   0  0  0  0  0  0  0  0  0  0  0  0
    1.6227   -0.2004    1.7652 C   0  0  0  0  0  0  0  0  0  0  0  0
    2.6375   -0.7470    2.5856 C   0  0  0  0  0  0  0  0  0  0  0  0
    3.8901   -0.0946    2.6215 C   0  0  0  0  0  0  0  0  0  0  0  0
    4.0177    1.0811    1.8674 C   0  0  0  0  0  0  0  0  0  0  0  0
    2.8123    1.7517    1.8829 C   0  0  0  0  0  0  0  0  0  0  0  0
    2.7218    3.1064    1.9293 O   0  0  0  0  0  0  0  0  0  0  0  0
    1.9570    1.0044    1.0958 C   0  0  0  0  0  0  0  0  0  0  0  0
    2.8352    0.7620   -0.1046 C   0  0  0  0  0  0  0  0  0  0  0  0
    4.1559    0.8111    0.4039 C   0  0  0  0  0  0  0  0  0  0  0  0
    5.2810    0.5668   -0.2750 N   0  0  0  0  0  0  0  0  0  0  0  0
    5.0521    0.2500   -1.5760 C   0  0  0  0  0  0  0  0  0  0  0  0
    3.7747    0.1826   -2.1715 C   0  0  0  0  0  0  0  0  0  0  0  0
    3.7176   -0.1886   -3.5755 N   0  3  0  0  0  0  0  0  0  0  0  0
    2.7877    0.2694   -4.2576 O   0  0  0  0  0  0  0  0  0  0  0  0
    4.6136   -0.9270   -4.0108 O   0  5  0  0  0  0  0  0  0  0  0  0
    2.6069    0.4808   -1.4394 C   0  0  0  0  0  0  0  0  0  0  0  0
    1.2981    0.2839   -1.9129 N   0  0  0  0  0  0  0  0  0  0  0  0
   -1.3158    4.0796   -0.0637 H   0  0  0  0  0  0  0  0  0  0  0  0
   -1.7410    3.7158   -1.5943 H   0  0  0  0  0  0  0  0  0  0  0  0
   -4.0676    3.5720   -0.9562 H   0  0  0  0  0  0  0  0  0  0  0  0
   -3.5678    3.9002    0.7037 H   0  0  0  0  0  0  0  0  0  0  0  0
   -2.6052    1.5308   -0.9943 H   0  0  0  0  0  0  0  0  0  0  0  0
   -2.1269    1.8446    0.6764 H   0  0  0  0  0  0  0  0  0  0  0  0
   -5.0241    1.3422   -0.2218 H   0  0  0  0  0  0  0  0  0  0  0  0
   -4.4794    1.6215    1.4301 H   0  0  0  0  0  0  0  0  0  0  0  0
   -2.9280   -0.4064    1.1549 H   0  0  0  0  0  0  0  0  0  0  0  0
   -4.6464   -0.7201    1.3132 H   0  0  0  0  0  0  0  0  0  0  0  0
   -3.5321   -0.4853   -1.5224 H   0  0  0  0  0  0  0  0  0  0  0  0
   -4.9796   -1.2743   -0.9229 H   0  0  0  0  0  0  0  0  0  0  0  0
   -3.5925   -3.0168   -1.2118 H   0  0  0  0  0  0  0  0  0  0  0  0
   -1.6052   -2.1181   -1.8758 H   0  0  0  0  0  0  0  0  0  0  0  0
   -1.4353   -1.2175   -0.3866 H   0  0  0  0  0  0  0  0  0  0  0  0
   -1.5939   -3.8899    0.5386 H   0  0  0  0  0  0  0  0  0  0  0  0
   -0.7580   -4.0465   -0.9958 H   0  0  0  0  0  0  0  0  0  0  0  0
    0.8962   -3.7817    0.6979 H   0  0  0  0  0  0  0  0  0  0  0  0
    0.9072   -2.2888   -0.2267 H   0  0  0  0  0  0  0  0  0  0  0  0
   -0.9843   -2.2479    2.1080 H   0  0  0  0  0  0  0  0  0  0  0  0
    0.6483   -2.5908    2.6026 H   0  0  0  0  0  0  0  0  0  0  0  0
   -0.2024   -0.2602    0.9324 H   0  0  0  0  0  0  0  0  0  0  0  0
    2.4900   -1.6536    3.1594 H   0  0  0  0  0  0  0  0  0  0  0  0
    4.7430   -0.5458    3.1151 H   0  0  0  0  0  0  0  0  0  0  0  0
    3.5134    3.4365    2.3901 H   0  0  0  0  0  0  0  0  0  0  0  0
    5.9551    0.0360   -2.1452 H   0  0  0  0  0  0  0  0  0  0  0  0
    1.2135    0.3970   -2.9272 H   0  0  0  0  0  0  0  0  0  0  0  0
    0.6015    0.8314   -1.4139 H   0  0  0  0  0  0  0  0  0  0  0  0
  2  1  1  0  0  0  0
  3  2  1  0  0  0  0
  4  3  1  0  0  0  0
  5  4  1  0  0  0  0
  6  5  1  0  0  0  0
  7  6  1  0  0  0  0
  8  7  1  0  0  0  0
  9  8  1  0  0  0  0
 10  9  1  0  0  0  0
 11 10  1  0  0  0  0
 12 11  1  0  0  0  0
 13 12  1  0  0  0  0
 14 13  2  0  0  0  0
 15 14  1  0  0  0  0
 16 15  2  0  0  0  0
 17 16  1  0  0  0  0
 18 17  1  0  0  0  0
 19 17  2  0  0  0  0
 19 13  1  0  0  0  0
 20 19  1  0  0  0  0
 21 20  2  0  0  0  0
 21 16  1  0  0  0  0
 22 21  1  0  0  0  0
 23 22  2  0  0  0  0
 24 23  1  0  0  0  0
 25 24  1  0  0  0  0
 26 25  2  0  0  0  0
 27 25  1  0  0  0  0
 28 24  2  0  0  0  0
 28 20  1  0  0  0  0
 29 28  1  0  0  0  0
  1 30  1  0  0  0  0
  1 31  1  0  0  0  0
  2 32  1  0  0  0  0
  2 33  1  0  0  0  0
  3 34  1  0  0  0  0
  3 35  1  0  0  0  0
  4 36  1  0  0  0  0
  4 37  1  0  0  0  0
  5 38  1  0  0  0  0
  5 39  1  0  0  0  0
  6 40  1  0  0  0  0
  6 41  1  0  0  0  0
  7 42  1  0  0  0  0
  8 43  1  0  0  0  0
  8 44  1  0  0  0  0
  9 45  1  0  0  0  0
  9 46  1  0  0  0  0
 10 47  1  0  0  0  0
 10 48  1  0  0  0  0
 11 49  1  0  0  0  0
 11 50  1  0  0  0  0
 12 51  1  0  0  0  0
 14 52  1  0  0  0  0
 15 53  1  0  0  0  0
 18 54  1  0  0  0  0
 23 55  1  0  0  0  0
 29 56  1  0  0  0  0
 29 57  1  0  0  0  0
M  CHG  2  25   1  27  -1
M  END
>  <energy>
255.92199532958301

$$$$
