CCCCCCCCCCC(=O)OCc1nc2ccc1CN(C(=O)C=CC1OC(=O)NC3(CCCC3)NC(=O)CC(C)=NC1=O)CCC2
                    3D

 99102  0  0  0  0  0  0  0  0999 V2000
   -5.1722    0.8693   -2.3332 C   0  0  0  0  0  0  0  0  0  0  0  0
   -4.4062    0.8939   -1.0193 C   0  0  0  0  0  0  0  0  0  0  0  0
   -5.3222    0.6020    0.1710 C   0  0  0  0  0  0  0  0  0  0  0  0
   -4.5889    0.5966    1.5157 C   0  0  0  0  0  0  0  0  0  0  0  0
   -3.6235   -0.5835    1.6788 C   0  0  0  0  0  0  0  0  0  0  0  0
   -2.9256   -0.5521    3.0430 C   0  0  0  0  0  0  0  0  0  0  0  0
   -1.5213   -1.1456    2.9536 C   0  0  0  0  0  0  0  0  0  0  0  0
   -0.7806   -1.1004    4.2946 C   0  0  0  0  0  0  0  0  0  0  0  0
    0.7114   -0.7519    4.1367 C   0  0  0  0  0  0  0  0  0  0  0  0
    1.0203    0.7375    4.3224 C   0  0  0  0  0  0  0  0  0  0  0  0
    0.3084    1.6359    3.3404 C   0  0  0  0  0  0  0  0  0  0  0  0
   -0.6400    2.3422    3.6429 O   0  0  0  0  0  0  0  0  0  0  0  0
    0.8491    1.5331    2.0961 O   0  0  0  0  0  0  0  0  0  0  0  0
    0.0915    2.1360    1.0207 C   0  0  0  0  0  0  0  0  0  0  0  0
    0.4830    3.5491    0.6548 C   0  0  0  0  0  0  0  0  0  0  0  0
   -0.2275    4.1764   -0.3094 N   0  0  0  0  0  0  0  0  0  0  0  0
    0.1648    5.4369   -0.6095 C   0  0  0  0  0  0  0  0  0  0  0  0
    0.8711    6.2364    0.2893 C   0  0  0  0  0  0  0  0  0  0  0  0
    1.6769    5.5505    1.1816 C   0  0  0  0  0  0  0  0  0  0  0  0
    1.6615    4.1591    1.0884 C   0  0  0  0  0  0  0  0  0  0  0  0
    2.9552    3.5124    0.5890 C   0  0  0  0  0  0  0  0  0  0  0  0
    2.9267    3.3243   -0.8949 N   0  0  0  0  0  0  0  0  0  0  0  0
    3.0450    2.0063   -1.3215 C   0  0  0  0  0  0  0  0  0  0  0  0
    3.2895    1.0677   -0.5662 O   0  0  0  0  0  0  0  0  0  0  0  0
    2.7931    1.7261   -2.7519 C   0  0  0  0  0  0  0  0  0  0  0  0
    2.1598    0.6248   -3.1938 C   0  0  0  0  0  0  0  0  0  0  0  0
    1.6135   -0.5483   -2.4074 C   0  0  0  0  0  0  0  0  0  0  0  0
    2.1752   -1.7315   -3.0276 O   0  0  0  0  0  0  0  0  0  0  0  0
    2.0267   -2.9929   -2.5410 C   0  0  0  0  0  0  0  0  0  0  0  0
    2.1531   -3.9604   -3.2813 O   0  0  0  0  0  0  0  0  0  0  0  0
    1.7548   -3.0935   -1.2019 N   0  0  0  0  0  0  0  0  0  0  0  0
    1.5642   -4.3375   -0.4876 C   0  0  0  0  0  0  0  0  0  0  0  0
    2.8703   -5.1589   -0.4546 C   0  0  0  0  0  0  0  0  0  0  0  0
    3.7341   -4.4138    0.5548 C   0  0  0  0  0  0  0  0  0  0  0  0
    2.7547   -4.0248    1.6560 C   0  0  0  0  0  0  0  0  0  0  0  0
    1.3598   -4.0535    1.0186 C   0  0  0  0  0  0  0  0  0  0  0  0
    0.4699   -5.1272   -1.0371 N   0  0  0  0  0  0  0  0  0  0  0  0
   -0.8634   -4.8979   -1.1726 C   0  0  0  0  0  0  0  0  0  0  0  0
   -1.5676   -5.8145   -1.6092 O   0  0  0  0  0  0  0  0  0  0  0  0
   -1.4737   -3.5601   -0.8201 C   0  0  0  0  0  0  0  0  0  0  0  0
   -1.1690   -2.4784   -1.8382 C   0  0  0  0  0  0  0  0  0  0  0  0
   -1.6751   -2.6870   -3.2488 C   0  0  0  0  0  0  0  0  0  0  0  0
   -0.4387   -1.4773   -1.4462 N   0  0  0  0  0  0  0  0  0  0  0  0
    0.0499   -0.5994   -2.3969 C   0  0  0  0  0  0  0  0  0  0  0  0
   -0.6575    0.0755   -3.1367 O   0  0  0  0  0  0  0  0  0  0  0  0
    2.8367    4.5214   -1.7974 C   0  0  0  0  0  0  0  0  0  0  0  0
    1.5278    4.7332   -2.6264 C   0  0  0  0  0  0  0  0  0  0  0  0
    0.4542    5.7153   -2.0670 C   0  0  0  0  0  0  0  0  0  0  0  0
   -4.4986    1.0939   -3.1678 H   0  0  0  0  0  0  0  0  0  0  0  0
   -5.9802    1.6096   -2.3349 H   0  0  0  0  0  0  0  0  0  0  0  0
   -5.6087   -0.1193   -2.5105 H   0  0  0  0  0  0  0  0  0  0  0  0
   -3.5995    0.1567   -1.0764 H   0  0  0  0  0  0  0  0  0  0  0  0
   -3.9383    1.8761   -0.8913 H   0  0  0  0  0  0  0  0  0  0  0  0
   -5.8310   -0.3562    0.0253 H   0  0  0  0  0  0  0  0  0  0  0  0
   -6.1015    1.3725    0.2097 H   0  0  0  0  0  0  0  0  0  0  0  0
   -4.0408    1.5409    1.6287 H   0  0  0  0  0  0  0  0  0  0  0  0
   -5.3328    0.5581    2.3212 H   0  0  0  0  0  0  0  0  0  0  0  0
   -2.8762   -0.5540    0.8791 H   0  0  0  0  0  0  0  0  0  0  0  0
   -4.1681   -1.5312    1.5717 H   0  0  0  0  0  0  0  0  0  0  0  0
   -3.5271   -1.1058    3.7750 H   0  0  0  0  0  0  0  0  0  0  0  0
   -2.8494    0.4806    3.4025 H   0  0  0  0  0  0  0  0  0  0  0  0
   -0.9594   -0.6009    2.1895 H   0  0  0  0  0  0  0  0  0  0  0  0
   -1.5799   -2.1854    2.6116 H   0  0  0  0  0  0  0  0  0  0  0  0
   -1.2545   -0.4028    4.9966 H   0  0  0  0  0  0  0  0  0  0  0  0
   -0.8589   -2.0985    4.7481 H   0  0  0  0  0  0  0  0  0  0  0  0
    1.2701   -1.3006    4.9073 H   0  0  0  0  0  0  0  0  0  0  0  0
    1.0884   -1.1046    3.1686 H   0  0  0  0  0  0  0  0  0  0  0  0
    2.0988    0.9108    4.2419 H   0  0  0  0  0  0  0  0  0  0  0  0
    0.7434    1.0476    5.3378 H   0  0  0  0  0  0  0  0  0  0  0  0
    0.2442    1.4897    0.1473 H   0  0  0  0  0  0  0  0  0  0  0  0
   -0.9808    2.1067    1.2547 H   0  0  0  0  0  0  0  0  0  0  0  0
    1.0789    7.2804    0.0840 H   0  0  0  0  0  0  0  0  0  0  0  0
    2.5078    6.0754    1.6513 H   0  0  0  0  0  0  0  0  0  0  0  0
    3.8356    4.1204    0.8310 H   0  0  0  0  0  0  0  0  0  0  0  0
    3.0815    2.5600    1.1163 H   0  0  0  0  0  0  0  0  0  0  0  0
    3.1654    2.4514   -3.4637 H   0  0  0  0  0  0  0  0  0  0  0  0
    2.0249    0.5292   -4.2725 H   0  0  0  0  0  0  0  0  0  0  0  0
    1.9409   -0.4984   -1.3702 H   0  0  0  0  0  0  0  0  0  0  0  0
    1.8762   -2.2739   -0.6314 H   0  0  0  0  0  0  0  0  0  0  0  0
    2.6795   -6.1773   -0.0850 H   0  0  0  0  0  0  0  0  0  0  0  0
    3.3733   -5.2513   -1.4216 H   0  0  0  0  0  0  0  0  0  0  0  0
    4.1607   -3.5095    0.0981 H   0  0  0  0  0  0  0  0  0  0  0  0
    4.5684   -5.0186    0.9299 H   0  0  0  0  0  0  0  0  0  0  0  0
    2.9985   -3.0389    2.0671 H   0  0  0  0  0  0  0  0  0  0  0  0
    2.8041   -4.7479    2.4802 H   0  0  0  0  0  0  0  0  0  0  0  0
    0.8329   -3.1136    1.2096 H   0  0  0  0  0  0  0  0  0  0  0  0
    0.7768   -4.8540    1.4869 H   0  0  0  0  0  0  0  0  0  0  0  0
    0.7199   -6.0422   -1.3953 H   0  0  0  0  0  0  0  0  0  0  0  0
   -2.5614   -3.6830   -0.7825 H   0  0  0  0  0  0  0  0  0  0  0  0
   -1.1600   -3.2686    0.1839 H   0  0  0  0  0  0  0  0  0  0  0  0
   -2.2288   -1.8068   -3.5812 H   0  0  0  0  0  0  0  0  0  0  0  0
   -0.8328   -2.8762   -3.9156 H   0  0  0  0  0  0  0  0  0  0  0  0
   -2.3577   -3.5401   -3.2861 H   0  0  0  0  0  0  0  0  0  0  0  0
    3.6646    4.4088   -2.5096 H   0  0  0  0  0  0  0  0  0  0  0  0
    3.0925    5.4243   -1.2337 H   0  0  0  0  0  0  0  0  0  0  0  0
    1.8237    5.1329   -3.6082 H   0  0  0  0  0  0  0  0  0  0  0  0
    1.0429    3.7754   -2.8325 H   0  0  0  0  0  0  0  0  0  0  0  0
    0.8091    6.7475   -2.1912 H   0  0  0  0  0  0  0  0  0  0  0  0
   -0.4759    5.6392   -2.6444 H   0  0  0  0  0  0  0  0  0  0  0  0
  2  1  1  0  0  0  0
  3  2  1  0  0  0  0
  4  3  1  0  0  0  0
  5  4  1  0  0  0  0
  6  5  1  0  0  0  0
  7  6  1  0  0  0  0
  8  7  1  0  0  0  0
  9  8  1  0  0  0  0
 10  9  1  0  0  0  0
 11 10  1  0  0  0  0
 12 11  2  0  0  0  0
 13 11  1  0  0  0  0
 14 13  1  0  0  0  0
 15 14  1  0  0  0  0
 16 15  2  0  0  0  0
 17 16  1  0  0  0  0
 18 17  2  0  0  0  0
 19 18  1  0  0  0  0
 20 19  2  0  0  0  0
 20 15  1  0  0  0  0
 21 20  1  0  0  0  0
 22 21  1  0  0  0  0
 23 22  1  0  0  0  0
 24 23  2  0  0  0  0
 25 23  1  0  0  0  0
 26 25  2  0  0  0  0
 27 26  1  0  0  0  0
 28 27  1  0  0  0  0
 29 28  1  0  0  0  0
 30 29  2  0  0  0  0
 31 29  1  0  0  0  0
 32 31  1  0  0  0  0
 33 32  1  0  0  0  0
 34 33  1  0  0  0  0
 35 34  1  0  0  0  0
 36 35  1  0  0  0  0
 36 32  1  0  0  0  0
 37 32  1  0  0  0  0
 38 37  1  0  0  0  0
 39 38  2  0  0  0  0
 40 38  1  0  0  0  0
 41 40  1  0  0  0  0
 42 41  1  0  0  0  0
 43 41  2  0  0  0  0
 44 43  1  0  0  0  0
 44 27  1  0  0  0  0
 45 44  2  0  0  0  0
 46 22  1  0  0  0  0
 47 46  1  0  0  0  0
 48 47  1  0  0  0  0
 48 17  1  0  0  0  0
  1 49  1  0  0  0  0
  1 50  1  0  0  0  0
  1 51  1  0  0  0  0
  2 52  1  0  0  0  0
  2 53  1  0  0  0  0
  3 54  1  0  0  0  0
  3 55  1  0  0  0  0
  4 56  1  0  0  0  0
  4 57  1  0  0  0  0
  5 58  1  0  0  0  0
  5 59  1  0  0  0  0
  6 60  1  0  0  0  0
  6 61  1  0  0  0  0
  7 62  1  0  0  0  0
  7 63  1  0  0  0  0
  8 64  1  0  0  0  0
  8 65  1  0  0  0  0
  9 66  1  0  0  0  0
  9 67  1  0  0  0  0
 10 68  1  0  0  0  0
 10 69  1  0  0  0  0
 14 70  1  0  0  0  0
 14 71  1  0  0  0  0
 18 72  1  0  0  0  0
 19 73  1  0  0  0  0
 21 74  1  0  0  0  0
 21 75  1  0  0  0  0
 25 76  1  0  0  0  0
 26 77  1  0  0  0  0
 27 78  1  0  0  0  0
 31 79  1  0  0  0  0
 33 80  1  0  0  0  0
 33 81  1  0  0  0  0
 34 82  1  0  0  0  0
 34 83  1  0  0  0  0
 35 84  1  0  0  0  0
 35 85  1  0  0  0  0
 36 86  1  0  0  0  0
 36 87  1  0  0  0  0
 37 88  1  0  0  0  0
 40 89  1  0  0  0  0
 40 90  1  0  0  0  0
 42 91  1  0  0  0  0
 42 92  1  0  0  0  0
 42 93  1  0  0  0  0
 46 94  1  0  0  0  0
 46 95  1  0  0  0  0
 47 96  1  0  0  0  0
 47 97  1  0  0  0  0
 48 98  1  0  0  0  0
 48 99  1  0  0  0  0
M  END
>  <energy>
11.664009035836358

$$$$
