COc1cc2c(CC(C)=O)c(OC)c1C(CCC(=O)NC(C)(C)C)C1CC2NC23C4C(C(=O)N(C)CCN(C)C)C(O1)C2
                    3D

105110  0  0  0  0  0  0  0  0999 V2000
   -1.1672    4.1470    1.7807 C   0  0  0  0  0  0  0  0  0  0  0  0
   -1.3979    2.8808    1.1761 O   0  0  0  0  0  0  0  0  0  0  0  0
   -1.4245    2.8347   -0.1795 C   0  0  0  0  0  0  0  0  0  0  0  0
   -0.8228    3.7460   -1.0440 C   0  0  0  0  0  0  0  0  0  0  0  0
   -0.5528    3.2537   -2.3385 C   0  0  0  0  0  0  0  0  0  0  0  0
   -1.6919    2.7005   -2.9297 C   0  0  0  0  0  0  0  0  0  0  0  0
   -2.0135    2.9329   -4.3776 C   0  0  0  0  0  0  0  0  0  0  0  0
   -1.4984    1.8848   -5.3369 C   0  0  0  0  0  0  0  0  0  0  0  0
   -2.3770    0.7017   -5.6359 C   0  0  0  0  0  0  0  0  0  0  0  0
   -0.3874    1.9864   -5.8756 O   0  0  0  0  0  0  0  0  0  0  0  0
   -2.4280    1.8596   -2.0871 C   0  0  0  0  0  0  0  0  0  0  0  0
   -3.4306    1.0994   -2.6157 O   0  0  0  0  0  0  0  0  0  0  0  0
   -4.6562    1.3530   -1.9246 C   0  0  0  0  0  0  0  0  0  0  0  0
   -1.9814    1.6977   -0.7612 C   0  0  0  0  0  0  0  0  0  0  0  0
   -1.4422    0.2958   -0.3546 C   0  0  0  0  0  0  0  0  0  0  0  0
   -1.5538   -0.0618    1.1370 C   0  0  0  0  0  0  0  0  0  0  0  0
   -2.9941   -0.0474    1.6619 C   0  0  0  0  0  0  0  0  0  0  0  0
   -2.9732   -0.2993    3.1559 C   0  0  0  0  0  0  0  0  0  0  0  0
   -2.9785    0.6238    3.9648 O   0  0  0  0  0  0  0  0  0  0  0  0
   -2.8766   -1.6336    3.4964 N   0  0  0  0  0  0  0  0  0  0  0  0
   -2.4240   -2.1222    4.8130 C   0  0  0  0  0  0  0  0  0  0  0  0
   -2.7356   -3.6310    4.8975 C   0  0  0  0  0  0  0  0  0  0  0  0
   -3.1384   -1.4380    5.9895 C   0  0  0  0  0  0  0  0  0  0  0  0
   -0.9091   -1.8844    4.9321 C   0  0  0  0  0  0  0  0  0  0  0  0
    0.0454    0.0171   -0.9246 C   0  0  0  0  0  0  0  0  0  0  0  0
    0.2923    0.6981   -2.3481 C   0  0  0  0  0  0  0  0  0  0  0  0
    0.6776    2.2130   -2.2328 C   0  0  0  0  0  0  0  0  0  0  0  0
    2.0002    2.5461   -2.8590 N   0  0  0  0  0  0  0  0  0  0  0  0
    2.9733    1.8717   -2.0581 C   0  0  0  0  0  0  0  0  0  0  0  0
    3.9285    0.6268   -2.1781 C   0  0  0  0  0  0  0  0  0  0  0  0
    3.7242   -0.4212   -0.9847 C   0  0  0  0  0  0  0  0  0  0  0  0
    3.3892   -1.8432   -1.3594 C   0  0  0  0  0  0  0  0  0  0  0  0
    3.0603   -2.1335   -2.5086 O   0  0  0  0  0  0  0  0  0  0  0  0
    3.3255   -2.7556   -0.2949 N   0  0  0  0  0  0  0  0  0  0  0  0
    4.1776   -2.5863    0.8707 C   0  0  0  0  0  0  0  0  0  0  0  0
    2.0144   -3.3551   -0.0217 C   0  0  0  0  0  0  0  0  0  0  0  0
    1.4437   -4.2976   -1.0976 C   0  0  0  0  0  0  0  0  0  0  0  0
   -0.0231   -4.4149   -0.9510 N   0  0  0  0  0  0  0  0  0  0  0  0
   -0.3968   -5.4653   -0.0062 C   0  0  0  0  0  0  0  0  0  0  0  0
   -0.6436   -4.6562   -2.2556 C   0  0  0  0  0  0  0  0  0  0  0  0
    2.4962    0.3164   -0.4260 C   0  0  0  0  0  0  0  0  0  0  0  0
    1.1533    0.1632    0.1005 O   0  0  0  0  0  0  0  0  0  0  0  0
    3.0050    1.7470   -0.5884 C   0  0  0  0  0  0  0  0  0  0  0  0
    3.2150    2.7018    0.5913 C   0  0  0  0  0  0  0  0  0  0  0  0
    4.6886    2.6840    1.0536 C   0  0  0  0  0  0  0  0  0  0  0  0
    2.8515    4.1490    0.2314 C   0  0  0  0  0  0  0  0  0  0  0  0
    2.3586    2.2844    1.8008 C   0  0  0  0  0  0  0  0  0  0  0  0
    4.2545    1.9765   -1.6572 N   0  0  0  0  0  0  0  0  0  0  0  0
   -1.8932    4.8839    1.4236 H   0  0  0  0  0  0  0  0  0  0  0  0
   -1.2978    4.0254    2.8613 H   0  0  0  0  0  0  0  0  0  0  0  0
   -0.1413    4.4847    1.6024 H   0  0  0  0  0  0  0  0  0  0  0  0
   -0.2282    4.5653   -0.6538 H   0  0  0  0  0  0  0  0  0  0  0  0
   -1.5911    3.8981   -4.6904 H   0  0  0  0  0  0  0  0  0  0  0  0
   -3.0950    3.0383   -4.5148 H   0  0  0  0  0  0  0  0  0  0  0  0
   -1.9403    0.1131   -6.4490 H   0  0  0  0  0  0  0  0  0  0  0  0
   -2.4607    0.0615   -4.7568 H   0  0  0  0  0  0  0  0  0  0  0  0
   -3.3627    1.0513   -5.9544 H   0  0  0  0  0  0  0  0  0  0  0  0
   -5.4762    1.0577   -2.5846 H   0  0  0  0  0  0  0  0  0  0  0  0
   -4.7839    2.4169   -1.7005 H   0  0  0  0  0  0  0  0  0  0  0  0
   -4.7206    0.7610   -1.0071 H   0  0  0  0  0  0  0  0  0  0  0  0
   -2.0936   -0.4219   -0.8821 H   0  0  0  0  0  0  0  0  0  0  0  0
   -1.1383   -1.0645    1.2949 H   0  0  0  0  0  0  0  0  0  0  0  0
   -0.9378    0.6036    1.7487 H   0  0  0  0  0  0  0  0  0  0  0  0
   -3.4834    0.9193    1.4964 H   0  0  0  0  0  0  0  0  0  0  0  0
   -3.6099   -0.8052    1.1609 H   0  0  0  0  0  0  0  0  0  0  0  0
   -2.7297   -2.2697    2.7223 H   0  0  0  0  0  0  0  0  0  0  0  0
   -2.3975   -4.0672    5.8452 H   0  0  0  0  0  0  0  0  0  0  0  0
   -3.8144   -3.8103    4.8220 H   0  0  0  0  0  0  0  0  0  0  0  0
   -2.2595   -4.1883    4.0842 H   0  0  0  0  0  0  0  0  0  0  0  0
   -4.2234   -1.4499    5.8597 H   0  0  0  0  0  0  0  0  0  0  0  0
   -2.8263   -0.3968    6.1118 H   0  0  0  0  0  0  0  0  0  0  0  0
   -2.9038   -1.9387    6.9345 H   0  0  0  0  0  0  0  0  0  0  0  0
   -0.6749   -0.8139    4.8816 H   0  0  0  0  0  0  0  0  0  0  0  0
   -0.3640   -2.3660    4.1130 H   0  0  0  0  0  0  0  0  0  0  0  0
   -0.5090   -2.2633    5.8784 H   0  0  0  0  0  0  0  0  0  0  0  0
    0.0545   -1.0619   -1.1215 H   0  0  0  0  0  0  0  0  0  0  0  0
    1.0800    0.1582   -2.8920 H   0  0  0  0  0  0  0  0  0  0  0  0
   -0.5598    0.5042   -3.0027 H   0  0  0  0  0  0  0  0  0  0  0  0
    0.8944    2.3408   -1.1730 H   0  0  0  0  0  0  0  0  0  0  0  0
    2.1363    3.5550   -2.7913 H   0  0  0  0  0  0  0  0  0  0  0  0
    4.3994    0.3164   -3.0947 H   0  0  0  0  0  0  0  0  0  0  0  0
    4.5995   -0.3606   -0.3322 H   0  0  0  0  0  0  0  0  0  0  0  0
    4.3039   -3.5603    1.3505 H   0  0  0  0  0  0  0  0  0  0  0  0
    5.1647   -2.2185    0.5760 H   0  0  0  0  0  0  0  0  0  0  0  0
    3.7115   -1.8854    1.5690 H   0  0  0  0  0  0  0  0  0  0  0  0
    2.0828   -3.9118    0.9189 H   0  0  0  0  0  0  0  0  0  0  0  0
    1.3269   -2.5241    0.1600 H   0  0  0  0  0  0  0  0  0  0  0  0
    1.9421   -5.2753   -1.0409 H   0  0  0  0  0  0  0  0  0  0  0  0
    1.6758   -3.9065   -2.0898 H   0  0  0  0  0  0  0  0  0  0  0  0
   -1.4517   -5.3531    0.2700 H   0  0  0  0  0  0  0  0  0  0  0  0
   -0.2538   -6.4735   -0.4159 H   0  0  0  0  0  0  0  0  0  0  0  0
    0.1749   -5.3925    0.9262 H   0  0  0  0  0  0  0  0  0  0  0  0
   -0.2867   -5.5809   -2.7251 H   0  0  0  0  0  0  0  0  0  0  0  0
   -1.7345   -4.7087   -2.1642 H   0  0  0  0  0  0  0  0  0  0  0  0
   -0.4354   -3.8229   -2.9390 H   0  0  0  0  0  0  0  0  0  0  0  0
    2.0750    0.0288   -1.3653 H   0  0  0  0  0  0  0  0  0  0  0  0
    5.0302    1.6641    1.2579 H   0  0  0  0  0  0  0  0  0  0  0  0
    5.3637    3.1048    0.2995 H   0  0  0  0  0  0  0  0  0  0  0  0
    4.8381    3.2795    1.9620 H   0  0  0  0  0  0  0  0  0  0  0  0
    1.8007    4.2306   -0.0368 H   0  0  0  0  0  0  0  0  0  0  0  0
    3.0229    4.8238    1.0783 H   0  0  0  0  0  0  0  0  0  0  0  0
    3.4305    4.5241   -0.6173 H   0  0  0  0  0  0  0  0  0  0  0  0
    1.2922    2.3274    1.5607 H   0  0  0  0  0  0  0  0  0  0  0  0
    2.5297    2.9434    2.6588 H   0  0  0  0  0  0  0  0  0  0  0  0
    2.5920    1.2644    2.1263 H   0  0  0  0  0  0  0  0  0  0  0  0
  2  1  1  0  0  0  0
  3  2  1  0  0  0  0
  4  3  2  0  0  0  0
  5  4  1  0  0  0  0
  6  5  2  0  0  0  0
  7  6  1  0  0  0  0
  8  7  1  0  0  0  0
  9  8  1  0  0  0  0
 10  8  2  0  0  0  0
 11  6  1  0  0  0  0
 12 11  1  0  0  0  0
 13 12  1  0  0  0  0
 14 11  2  0  0  0  0
 14  3  1  0  0  0  0
 15 14  1  0  0  0  0
 16 15  1  0  0  0  0
 17 16  1  0  0  0  0
 18 17  1  0  0  0  0
 19 18  2  0  0  0  0
 20 18  1  0  0  0  0
 21 20  1  0  0  0  0
 22 21  1  0  0  0  0
 23 21  1  0  0  0  0
 24 21  1  0  0  0  0
 25 15  1  0  0  0  0
 26 25  1  0  0  0  0
 27 26  1  0  0  0  0
 27  5  1  0  0  0  0
 28 27  1  0  0  0  0
 29 28  1  0  0  0  0
 30 29  1  0  0  0  0
 31 30  1  0  0  0  0
 32 31  1  0  0  0  0
 33 32  2  0  0  0  0
 34 32  1  0  0  0  0
 35 34  1  0  0  0  0
 36 34  1  0  0  0  0
 37 36  1  0  0  0  0
 38 37  1  0  0  0  0
 39 38  1  0  0  0  0
 40 38  1  0  0  0  0
 41 31  1  0  0  0  0
 42 41  1  0  0  0  0
 42 25  1  0  0  0  0
 43 41  1  0  0  0  0
 43 29  1  0  0  0  0
 44 43  1  0  0  0  0
 45 44  1  0  0  0  0
 46 44  1  0  0  0  0
 47 44  1  0  0  0  0
 48 43  1  0  0  0  0
 48 30  1  0  0  0  0
 48 29  1  0  0  0  0
  1 49  1  0  0  0  0
  1 50  1  0  0  0  0
  1 51  1  0  0  0  0
  4 52  1  0  0  0  0
  7 53  1  0  0  0  0
  7 54  1  0  0  0  0
  9 55  1  0  0  0  0
  9 56  1  0  0  0  0
  9 57  1  0  0  0  0
 13 58  1  0  0  0  0
 13 59  1  0  0  0  0
 13 60  1  0  0  0  0
 15 61  1  0  0  0  0
 16 62  1  0  0  0  0
 16 63  1  0  0  0  0
 17 64  1  0  0  0  0
 17 65  1  0  0  0  0
 20 66  1  0  0  0  0
 22 67  1  0  0  0  0
 22 68  1  0  0  0  0
 22 69  1  0  0  0  0
 23 70  1  0  0  0  0
 23 71  1  0  0  0  0
 23 72  1  0  0  0  0
 24 73  1  0  0  0  0
 24 74  1  0  0  0  0
 24 75  1  0  0  0  0
 25 76  1  0  0  0  0
 26 77  1  0  0  0  0
 26 78  1  0  0  0  0
 27 79  1  0  0  0  0
 28 80  1  0  0  0  0
 30 81  1  0  0  0  0
 31 82  1  0  0  0  0
 35 83  1  0  0  0  0
 35 84  1  0  0  0  0
 35 85  1  0  0  0  0
 36 86  1  0  0  0  0
 36 87  1  0  0  0  0
 37 88  1  0  0  0  0
 37 89  1  0  0  0  0
 39 90  1  0  0  0  0
 39 91  1  0  0  0  0
 39 92  1  0  0  0  0
 40 93  1  0  0  0  0
 40 94  1  0  0  0  0
 40 95  1  0  0  0  0
 41 96  1  0  0  0  0
 45 97  1  0  0  0  0
 45 98  1  0  0  0  0
 45 99  1  0  0  0  0
 46100  1  0  0  0  0
 46101  1  0  0  0  0
 46102  1  0  0  0  0
 47103  1  0  0  0  0
 47104  1  0  0  0  0
 47105  1  0  0  0  0
M  END
>  <energy>
346.53487678705153

$$$$
