CC1(C)CC(=O)N(CC=CC#CC2CN(C(=O)CBr)C3C4CC25C4C35)C(=O)C1N=C(N)N
                    3D

 60 64  0  0  0  0  0  0  0  0999 V2000
    3.8625   -1.8784    1.4376 C   0  0  0  0  0  0  0  0  0  0  0  0
    2.6003   -1.4312    0.6643 C   0  0  0  0  0  0  0  0  0  0  0  0
    2.1772   -2.5670   -0.3006 C   0  0  0  0  0  0  0  0  0  0  0  0
    1.4585   -1.1976    1.6556 C   0  0  0  0  0  0  0  0  0  0  0  0
    1.6771   -0.0016    2.5445 C   0  0  0  0  0  0  0  0  0  0  0  0
    1.2942   -0.0291    3.7151 O   0  0  0  0  0  0  0  0  0  0  0  0
    2.2621    1.1103    1.9509 N   0  0  0  0  0  0  0  0  0  0  0  0
    2.3287    2.3226    2.7442 C   0  0  0  0  0  0  0  0  0  0  0  0
    1.0079    3.0392    2.8700 C   0  0  0  0  0  0  0  0  0  0  0  0
   -0.1906    2.9024    2.2851 C   0  0  0  0  0  0  0  0  0  0  0  0
   -0.5774    1.9804    1.2771 C   0  0  0  0  0  0  0  0  0  0  0  0
   -1.0634    1.2494    0.4504 C   0  0  0  0  0  0  0  0  0  0  0  0
   -1.7680    0.4013   -0.5407 C   0  0  0  0  0  0  0  0  0  0  0  0
   -2.6130   -0.7411    0.1242 C   0  0  0  0  0  0  0  0  0  0  0  0
   -4.0348   -0.8686   -0.3220 N   0  0  0  0  0  0  0  0  0  0  0  0
   -4.8535   -1.8782    0.2202 C   0  0  0  0  0  0  0  0  0  0  0  0
   -5.9431   -1.6345    0.7407 O   0  0  0  0  0  0  0  0  0  0  0  0
   -4.3519   -3.2796   -0.0855 C   0  0  0  0  0  0  0  0  0  0  0  0
   -5.4771   -4.6166    0.7673 Br  0  0  0  0  0  0  0  0  0  0  0  0
   -4.7081    0.4152   -0.7086 C   0  0  0  0  0  0  0  0  0  0  0  0
   -4.4302    0.8176   -2.2430 C   0  0  0  0  0  0  0  0  0  0  0  0
   -2.9353    0.6445   -2.7027 C   0  0  0  0  0  0  0  0  0  0  0  0
   -2.5899    1.3974   -1.3752 C   0  0  0  0  0  0  0  0  0  0  0  0
   -3.9627    2.0862   -1.7041 C   0  0  0  0  0  0  0  0  0  0  0  0
   -3.8030    1.5470   -0.4140 C   0  0  0  0  0  0  0  0  0  0  0  0
    2.9363    1.1235    0.7298 C   0  0  0  0  0  0  0  0  0  0  0  0
    3.5487    2.1193    0.3318 O   0  0  0  0  0  0  0  0  0  0  0  0
    2.8188   -0.1344   -0.1505 C   0  0  0  0  0  0  0  0  0  0  0  0
    4.0562   -0.2744   -0.9316 N   0  0  0  0  0  0  0  0  0  0  0  0
    4.2086    0.3188   -2.0525 C   0  0  0  0  0  0  0  0  0  0  0  0
    5.3886    0.2073   -2.7112 N   0  0  0  0  0  0  0  0  0  0  0  0
    3.3674    1.0978   -2.7665 N   0  0  0  0  0  0  0  0  0  0  0  0
    4.6642   -2.1790    0.7537 H   0  0  0  0  0  0  0  0  0  0  0  0
    4.2512   -1.0787    2.0801 H   0  0  0  0  0  0  0  0  0  0  0  0
    3.6415   -2.7441    2.0791 H   0  0  0  0  0  0  0  0  0  0  0  0
    1.2668   -2.2953   -0.8487 H   0  0  0  0  0  0  0  0  0  0  0  0
    2.9594   -2.7769   -1.0366 H   0  0  0  0  0  0  0  0  0  0  0  0
    1.9708   -3.4917    0.2458 H   0  0  0  0  0  0  0  0  0  0  0  0
    1.3352   -2.0720    2.3046 H   0  0  0  0  0  0  0  0  0  0  0  0
    0.5066   -1.0609    1.1314 H   0  0  0  0  0  0  0  0  0  0  0  0
    3.0488    3.0370    2.3358 H   0  0  0  0  0  0  0  0  0  0  0  0
    2.7066    2.0603    3.7387 H   0  0  0  0  0  0  0  0  0  0  0  0
    1.0676    3.8335    3.6170 H   0  0  0  0  0  0  0  0  0  0  0  0
   -0.9797    3.5727    2.6192 H   0  0  0  0  0  0  0  0  0  0  0  0
   -1.0029   -0.0486   -1.1888 H   0  0  0  0  0  0  0  0  0  0  0  0
   -2.1016   -1.6937   -0.0505 H   0  0  0  0  0  0  0  0  0  0  0  0
   -2.6483   -0.6141    1.2164 H   0  0  0  0  0  0  0  0  0  0  0  0
   -4.4392   -3.4517   -1.1620 H   0  0  0  0  0  0  0  0  0  0  0  0
   -3.3314   -3.4632    0.2496 H   0  0  0  0  0  0  0  0  0  0  0  0
   -5.7502    0.5150   -0.3972 H   0  0  0  0  0  0  0  0  0  0  0  0
   -5.2226    0.7427   -2.9737 H   0  0  0  0  0  0  0  0  0  0  0  0
   -2.6655    1.1840   -3.6199 H   0  0  0  0  0  0  0  0  0  0  0  0
   -2.6293   -0.3976   -2.8189 H   0  0  0  0  0  0  0  0  0  0  0  0
   -4.0255    3.0569   -2.1339 H   0  0  0  0  0  0  0  0  0  0  0  0
   -3.8950    2.1321    0.4800 H   0  0  0  0  0  0  0  0  0  0  0  0
    1.9384    0.0335   -0.7853 H   0  0  0  0  0  0  0  0  0  0  0  0
    6.0901   -0.2243   -2.1147 H   0  0  0  0  0  0  0  0  0  0  0  0
    5.7393    1.1056   -3.0323 H   0  0  0  0  0  0  0  0  0  0  0  0
    3.3960    0.9030   -3.7624 H   0  0  0  0  0  0  0  0  0  0  0  0
    2.4179    1.1677   -2.4263 H   0  0  0  0  0  0  0  0  0  0  0  0
  2  1  1  0  0  0  0
  3  2  1  0  0  0  0
  4  2  1  0  0  0  0
  5  4  1  0  0  0  0
  6  5  2  0  0  0  0
  7  5  1  0  0  0  0
  8  7  1  0  0  0  0
  9  8  1  0  0  0  0
 10  9  2  0  0  0  0
 11 10  1  0  0  0  0
 12 11  3  0  0  0  0
 13 12  1  0  0  0  0
 14 13  1  0  0  0  0
 15 14  1  0  0  0  0
 16 15  1  0  0  0  0
 17 16  2  0  0  0  0
 18 16  1  0  0  0  0
 19 18  1  0  0  0  0
 20 15  1  0  0  0  0
 21 20  1  0  0  0  0
 22 21  1  0  0  0  0
 23 22  1  0  0  0  0
 23 13  1  0  0  0  0
 24 23  1  0  0  0  0
 24 21  1  0  0  0  0
 25 24  1  0  0  0  0
 25 20  1  0  0  0  0
 25 23  1  0  0  0  0
 26  7  1  0  0  0  0
 27 26  2  0  0  0  0
 28 26  1  0  0  0  0
 28  2  1  0  0  0  0
 29 28  1  0  0  0  0
 30 29  2  0  0  0  0
 31 30  1  0  0  0  0
 32 30  1  0  0  0  0
  1 33  1  0  0  0  0
  1 34  1  0  0  0  0
  1 35  1  0  0  0  0
  3 36  1  0  0  0  0
  3 37  1  0  0  0  0
  3 38  1  0  0  0  0
  4 39  1  0  0  0  0
  4 40  1  0  0  0  0
  8 41  1  0  0  0  0
  8 42  1  0  0  0  0
  9 43  1  0  0  0  0
 10 44  1  0  0  0  0
 13 45  1  0  0  0  0
 14 46  1  0  0  0  0
 14 47  1  0  0  0  0
 18 48  1  0  0  0  0
 18 49  1  0  0  0  0
 20 50  1  0  0  0  0
 21 51  1  0  0  0  0
 22 52  1  0  0  0  0
 22 53  1  0  0  0  0
 24 54  1  0  0  0  0
 25 55  1  0  0  0  0
 28 56  1  0  0  0  0
 31 57  1  0  0  0  0
 31 58  1  0  0  0  0
 32 59  1  0  0  0  0
 32 60  1  0  0  0  0
M  END
>  <energy>
2.3997648379312295

$$$$
