CNC1C2C3C4NC5C(C(O)O)C6C5C5C(C13)C(C42)C65
                    3D

 42 48  0  0  0  0  0  0  0  0999 V2000
   -4.8470   -0.1141    0.8268 C   0  0  0  0  0  0  0  0  0  0  0  0
   -3.8517   -0.5528   -0.1455 N   0  0  0  0  0  0  0  0  0  0  0  0
   -2.6319    0.2620   -0.0055 C   0  0  0  0  0  0  0  0  0  0  0  0
   -1.6760   -0.3953    1.0294 C   0  0  0  0  0  0  0  0  0  0  0  0
   -1.2345   -1.3358   -0.1088 C   0  0  0  0  0  0  0  0  0  0  0  0
    0.1586   -1.3276    0.5047 C   0  0  0  0  0  0  0  0  0  0  0  0
    0.9836   -1.6098   -0.6251 N   0  0  0  0  0  0  0  0  0  0  0  0
    2.1907   -0.9722   -1.0080 C   0  0  0  0  0  0  0  0  0  0  0  0
    3.0009   -0.1182   -0.0322 C   0  0  0  0  0  0  0  0  0  0  0  0
    3.2695   -0.1841    1.4636 C   0  0  0  0  0  0  0  0  0  0  0  0
    3.1473   -1.5035    1.9482 O   0  0  0  0  0  0  0  0  0  0  0  0
    2.4213    0.6585    2.1994 O   0  0  0  0  0  0  0  0  0  0  0  0
    2.5414    1.1235   -0.7839 C   0  0  0  0  0  0  0  0  0  0  0  0
    1.9016    0.2346   -1.8772 C   0  0  0  0  0  0  0  0  0  0  0  0
    0.6828    1.1314   -1.8690 C   0  0  0  0  0  0  0  0  0  0  0  0
   -0.6592    1.0333   -1.1884 C   0  0  0  0  0  0  0  0  0  0  0  0
   -1.5921   -0.1898   -1.1112 C   0  0  0  0  0  0  0  0  0  0  0  0
   -0.0200    1.3070    0.1595 C   0  0  0  0  0  0  0  0  0  0  0  0
   -0.1429    0.0733    1.0351 C   0  0  0  0  0  0  0  0  0  0  0  0
    1.2207    1.8007   -0.5556 C   0  0  0  0  0  0  0  0  0  0  0  0
   -5.7305   -0.7565    0.7563 H   0  0  0  0  0  0  0  0  0  0  0  0
   -5.1639    0.9161    0.6335 H   0  0  0  0  0  0  0  0  0  0  0  0
   -4.4715   -0.1842    1.8523 H   0  0  0  0  0  0  0  0  0  0  0  0
   -4.2649   -0.4983   -1.0767 H   0  0  0  0  0  0  0  0  0  0  0  0
   -2.8169    1.3358    0.1000 H   0  0  0  0  0  0  0  0  0  0  0  0
   -2.0655   -0.8590    1.9379 H   0  0  0  0  0  0  0  0  0  0  0  0
   -1.7591   -2.2902   -0.2097 H   0  0  0  0  0  0  0  0  0  0  0  0
    0.2618   -2.0720    1.3047 H   0  0  0  0  0  0  0  0  0  0  0  0
    0.6102   -2.2775   -1.2998 H   0  0  0  0  0  0  0  0  0  0  0  0
    2.8461   -1.6902   -1.5212 H   0  0  0  0  0  0  0  0  0  0  0  0
    4.0474   -0.2848   -0.3715 H   0  0  0  0  0  0  0  0  0  0  0  0
    4.2927    0.1521    1.6675 H   0  0  0  0  0  0  0  0  0  0  0  0
    2.4418   -1.9230    1.4263 H   0  0  0  0  0  0  0  0  0  0  0  0
    2.7466    0.5988    3.1133 H   0  0  0  0  0  0  0  0  0  0  0  0
    3.3400    1.7888   -1.1299 H   0  0  0  0  0  0  0  0  0  0  0  0
    2.4518    0.2352   -2.8250 H   0  0  0  0  0  0  0  0  0  0  0  0
    0.6708    1.8042   -2.7368 H   0  0  0  0  0  0  0  0  0  0  0  0
   -1.2566    1.8984   -1.5279 H   0  0  0  0  0  0  0  0  0  0  0  0
   -2.0018   -0.5033   -2.0753 H   0  0  0  0  0  0  0  0  0  0  0  0
   -0.5029    2.1506    0.6772 H   0  0  0  0  0  0  0  0  0  0  0  0
    0.1849    0.2429    2.0641 H   0  0  0  0  0  0  0  0  0  0  0  0
    1.2761    2.8953   -0.6158 H   0  0  0  0  0  0  0  0  0  0  0  0
  2  1  1  0  0  0  0
  3  2  1  0  0  0  0
  4  3  1  0  0  0  0
  5  4  1  0  0  0  0
  6  5  1  0  0  0  0
  7  6  1  0  0  0  0
  8  7  1  0  0  0  0
  9  8  1  0  0  0  0
 10  9  1  0  0  0  0
 11 10  1  0  0  0  0
 12 10  1  0  0  0  0
 13  9  1  0  0  0  0
 14 13  1  0  0  0  0
 14  8  1  0  0  0  0
 15 14  1  0  0  0  0
 16 15  1  0  0  0  0
 17 16  1  0  0  0  0
 17  3  1  0  0  0  0
 17  5  1  0  0  0  0
 18 16  1  0  0  0  0
 19 18  1  0  0  0  0
 19  6  1  0  0  0  0
 19  4  1  0  0  0  0
 20 18  1  0  0  0  0
 20 13  1  0  0  0  0
 20 15  1  0  0  0  0
  1 21  1  0  0  0  0
  1 22  1  0  0  0  0
  1 23  1  0  0  0  0
  2 24  1  0  0  0  0
  3 25  1  0  0  0  0
  4 26  1  0  0  0  0
  5 27  1  0  0  0  0
  6 28  1  0  0  0  0
  7 29  1  0  0  0  0
  8 30  1  0  0  0  0
  9 31  1  0  0  0  0
 10 32  1  0  0  0  0
 11 33  1  0  0  0  0
 12 34  1  0  0  0  0
 13 35  1  0  0  0  0
 14 36  1  0  0  0  0
 15 37  1  0  0  0  0
 16 38  1  0  0  0  0
 17 39  1  0  0  0  0
 18 40  1  0  0  0  0
 19 41  1  0  0  0  0
 20 42  1  0  0  0  0
M  END
>  <energy>
125.86961634911917

$$$$
