COC1C(=CCl)C2=C(C(=O)OS(N)(=O)=O)C1S(=O)(=O)CC2
                    3D

 33 34  0  0  0  0  0  0  0  0999 V2000
   -2.4020   -2.6040    0.6039 C   0  0  0  0  0  0  0  0  0  0  0  0
   -1.6505   -1.8243   -0.3193 O   0  0  0  0  0  0  0  0  0  0  0  0
   -1.7445   -0.4174   -0.0584 C   0  0  0  0  0  0  0  0  0  0  0  0
   -1.5060    0.3145   -1.3605 C   0  0  0  0  0  0  0  0  0  0  0  0
   -2.3785    0.5090   -2.3536 C   0  0  0  0  0  0  0  0  0  0  0  0
   -3.9805   -0.0991   -2.3499 Cl  0  0  0  0  0  0  0  0  0  0  0  0
   -0.1320    0.8388   -1.3043 C   0  0  0  0  0  0  0  0  0  0  0  0
    0.4981    0.1933   -0.3019 C   0  0  0  0  0  0  0  0  0  0  0  0
    1.9230    0.2268    0.0605 C   0  0  0  0  0  0  0  0  0  0  0  0
    2.7043    1.0486   -0.3752 O   0  0  0  0  0  0  0  0  0  0  0  0
    2.1698   -0.8443    0.8217 O   0  0  0  0  0  0  0  0  0  0  0  0
    3.6276   -1.4651    1.1070 S   0  0  0  0  0  0  0  0  0  0  0  0
    3.8286   -2.5136   -0.1857 N   0  0  0  0  0  0  0  0  0  0  0  0
    4.6525   -0.4595    1.0015 O   0  0  0  0  0  0  0  0  0  0  0  0
    3.5090   -2.3115    2.2742 O   0  0  0  0  0  0  0  0  0  0  0  0
   -0.5348    0.0072    0.7625 C   0  0  0  0  0  0  0  0  0  0  0  0
   -0.7414    1.6875    1.4489 S   0  0  0  0  0  0  0  0  0  0  0  0
   -2.1626    1.9818    1.5381 O   0  0  0  0  0  0  0  0  0  0  0  0
    0.0867    1.7570    2.6353 O   0  0  0  0  0  0  0  0  0  0  0  0
   -0.0166    2.8354    0.2360 C   0  0  0  0  0  0  0  0  0  0  0  0
   -0.1095    2.3557   -1.2219 C   0  0  0  0  0  0  0  0  0  0  0  0
   -2.1361   -2.3539    1.6354 H   0  0  0  0  0  0  0  0  0  0  0  0
   -2.1619   -3.6557    0.4312 H   0  0  0  0  0  0  0  0  0  0  0  0
   -3.4733   -2.4562    0.4383 H   0  0  0  0  0  0  0  0  0  0  0  0
   -2.7123   -0.1574    0.3812 H   0  0  0  0  0  0  0  0  0  0  0  0
   -2.1667    1.0643   -3.2578 H   0  0  0  0  0  0  0  0  0  0  0  0
    3.1385   -3.2612   -0.1836 H   0  0  0  0  0  0  0  0  0  0  0  0
    3.9650   -2.0252   -1.0673 H   0  0  0  0  0  0  0  0  0  0  0  0
   -0.2686   -0.6896    1.5571 H   0  0  0  0  0  0  0  0  0  0  0  0
   -0.5227    3.7960    0.3570 H   0  0  0  0  0  0  0  0  0  0  0  0
    1.0284    2.9841    0.5246 H   0  0  0  0  0  0  0  0  0  0  0  0
   -1.0332    2.7690   -1.6460 H   0  0  0  0  0  0  0  0  0  0  0  0
    0.7022    2.7691   -1.8290 H   0  0  0  0  0  0  0  0  0  0  0  0
  2  1  1  0  0  0  0
  3  2  1  0  0  0  0
  4  3  1  0  0  0  0
  5  4  2  0  0  0  0
  6  5  1  0  0  0  0
  7  4  1  0  0  0  0
  8  7  2  0  0  0  0
  9  8  1  0  0  0  0
 10  9  2  0  0  0  0
 11  9  1  0  0  0  0
 12 11  1  0  0  0  0
 13 12  1  0  0  0  0
 14 12  2  0  0  0  0
 15 12  2  0  0  0  0
 16  8  1  0  0  0  0
 16  3  1  0  0  0  0
 17 16  1  0  0  0  0
 18 17  2  0  0  0  0
 19 17  2  0  0  0  0
 20 17  1  0  0  0  0
 21 20  1  0  0  0  0
 21  7  1  0  0  0  0
  1 22  1  0  0  0  0
  1 23  1  0  0  0  0
  1 24  1  0  0  0  0
  3 25  1  0  0  0  0
  5 26  1  0  0  0  0
 13 27  1  0  0  0  0
 13 28  1  0  0  0  0
 16 29  1  0  0  0  0
 20 30  1  0  0  0  0
 20 31  1  0  0  0  0
 21 32  1  0  0  0  0
 21 33  1  0  0  0  0
M  END
>  <energy>
-115.16869556784854

$$$$
