CC12OC3C4CC5(C(OC15)O2)C(Cn1cc[n+](CC(=O)O)c1)(O4)C3Cl
                    3D

 43 48  0  0  0  0  0  0  0  0999 V2000
    2.6710   -2.7877    0.0778 C   0  0  0  0  0  0  0  0  0  0  0  0
    2.5089   -1.3098    0.3540 C   0  0  0  0  0  0  0  0  0  0  0  0
    3.4355   -0.5633   -0.4688 O   0  0  0  0  0  0  0  0  0  0  0  0
    3.1012    0.6963   -1.1127 C   0  0  0  0  0  0  0  0  0  0  0  0
    3.0074    1.9268   -0.1620 C   0  0  0  0  0  0  0  0  0  0  0  0
    2.5397    1.5309    1.2019 C   0  0  0  0  0  0  0  0  0  0  0  0
    1.2279    0.7353    0.8252 C   0  0  0  0  0  0  0  0  0  0  0  0
    1.4234   -0.3515    2.0295 C   0  0  0  0  0  0  0  0  0  0  0  0
    0.2941   -1.0774    1.4669 O   0  0  0  0  0  0  0  0  0  0  0  0
    1.0783   -0.8050    0.2346 C   0  0  0  0  0  0  0  0  0  0  0  0
    2.6475   -1.0839    1.7518 O   0  0  0  0  0  0  0  0  0  0  0  0
    0.9338    1.3944   -0.5740 C   0  0  0  0  0  0  0  0  0  0  0  0
   -0.5051    1.8675   -0.7472 C   0  0  0  0  0  0  0  0  0  0  0  0
   -1.5554    0.8402   -0.7898 N   0  0  0  0  0  0  0  0  0  0  0  0
   -1.8797    0.0566   -1.8873 C   0  0  0  0  0  0  0  0  0  0  0  0
   -3.0573   -0.5660   -1.5964 C   0  0  0  0  0  0  0  0  0  0  0  0
   -3.4623   -0.0868   -0.3658 N   0  3  0  0  0  0  0  0  0  0  0  0
   -4.7751   -0.3444    0.2634 C   0  0  0  0  0  0  0  0  0  0  0  0
   -4.6893   -1.3220    1.4205 C   0  0  0  0  0  0  0  0  0  0  0  0
   -5.5547   -2.1213    1.7402 O   0  0  0  0  0  0  0  0  0  0  0  0
   -3.5533   -1.2053    2.1431 O   0  0  0  0  0  0  0  0  0  0  0  0
   -2.4956    0.6781    0.1661 C   0  0  0  0  0  0  0  0  0  0  0  0
    1.7773    2.5947   -0.5277 O   0  0  0  0  0  0  0  0  0  0  0  0
    1.6951    0.7123   -1.7497 C   0  0  0  0  0  0  0  0  0  0  0  0
    1.6336    1.6768   -3.2616 Cl  0  0  0  0  0  0  0  0  0  0  0  0
    2.5463   -3.0224   -0.9840 H   0  0  0  0  0  0  0  0  0  0  0  0
    1.9663   -3.3916    0.6574 H   0  0  0  0  0  0  0  0  0  0  0  0
    3.6780   -3.1124    0.3669 H   0  0  0  0  0  0  0  0  0  0  0  0
    3.8800    0.8702   -1.8643 H   0  0  0  0  0  0  0  0  0  0  0  0
    3.8624    2.6052   -0.1879 H   0  0  0  0  0  0  0  0  0  0  0  0
    2.2569    2.3994    1.8052 H   0  0  0  0  0  0  0  0  0  0  0  0
    3.3318    1.0151    1.7496 H   0  0  0  0  0  0  0  0  0  0  0  0
    1.2874   -0.0381    3.0667 H   0  0  0  0  0  0  0  0  0  0  0  0
    0.4540   -1.0881   -0.6116 H   0  0  0  0  0  0  0  0  0  0  0  0
   -0.6071    2.4698   -1.6566 H   0  0  0  0  0  0  0  0  0  0  0  0
   -0.7564    2.5589    0.0691 H   0  0  0  0  0  0  0  0  0  0  0  0
   -1.2369    0.0618   -2.7528 H   0  0  0  0  0  0  0  0  0  0  0  0
   -3.6890   -1.2507   -2.1315 H   0  0  0  0  0  0  0  0  0  0  0  0
   -5.1919    0.6045    0.6192 H   0  0  0  0  0  0  0  0  0  0  0  0
   -5.4492   -0.7572   -0.4989 H   0  0  0  0  0  0  0  0  0  0  0  0
   -3.6404   -1.8837    2.8509 H   0  0  0  0  0  0  0  0  0  0  0  0
   -2.5079    1.1485    1.1448 H   0  0  0  0  0  0  0  0  0  0  0  0
    1.3688   -0.2747   -2.0737 H   0  0  0  0  0  0  0  0  0  0  0  0
  2  1  1  0  0  0  0
  3  2  1  0  0  0  0
  4  3  1  0  0  0  0
  5  4  1  0  0  0  0
  6  5  1  0  0  0  0
  7  6  1  0  0  0  0
  8  7  1  0  0  0  0
  9  8  1  0  0  0  0
 10  9  1  0  0  0  0
 10  2  1  0  0  0  0
 10  7  1  0  0  0  0
 11  8  1  0  0  0  0
 11  2  1  0  0  0  0
 12  7  1  0  0  0  0
 13 12  1  0  0  0  0
 14 13  1  0  0  0  0
 15 14  1  0  0  0  0
 16 15  2  0  0  0  0
 17 16  1  0  0  0  0
 18 17  1  0  0  0  0
 19 18  1  0  0  0  0
 20 19  2  0  0  0  0
 21 19  1  0  0  0  0
 22 17  2  0  0  0  0
 22 14  1  0  0  0  0
 23 12  1  0  0  0  0
 23  5  1  0  0  0  0
 24 12  1  0  0  0  0
 24  4  1  0  0  0  0
 25 24  1  0  0  0  0
  1 26  1  0  0  0  0
  1 27  1  0  0  0  0
  1 28  1  0  0  0  0
  4 29  1  0  0  0  0
  5 30  1  0  0  0  0
  6 31  1  0  0  0  0
  6 32  1  0  0  0  0
  8 33  1  0  0  0  0
 10 34  1  0  0  0  0
 13 35  1  0  0  0  0
 13 36  1  0  0  0  0
 15 37  1  0  0  0  0
 16 38  1  0  0  0  0
 18 39  1  0  0  0  0
 18 40  1  0  0  0  0
 21 41  1  0  0  0  0
 22 42  1  0  0  0  0
 24 43  1  0  0  0  0
M  CHG  1  17   1
M  END
>  <energy>
216.65438762588326

$$$$
