C=C1C(=O)C23C=C(C)C1C(C2)C(C)(C=O)C3OC1C=CC(=O)C(C)(C)C1=O
                    3D

 51 54  0  0  0  0  0  0  0  0999 V2000
   -1.6600    0.2682    2.4368 C   0  0  0  0  0  0  0  0  0  0  0  0
   -1.8887    0.3863    1.1248 C   0  0  0  0  0  0  0  0  0  0  0  0
   -1.0665    1.2900    0.2116 C   0  0  0  0  0  0  0  0  0  0  0  0
   -0.2856    2.1304    0.6579 O   0  0  0  0  0  0  0  0  0  0  0  0
   -1.3484    1.0995   -1.3457 C   0  0  0  0  0  0  0  0  0  0  0  0
   -2.7123    1.8547   -0.9566 C   0  0  0  0  0  0  0  0  0  0  0  0
   -3.6295    1.1853   -0.1991 C   0  0  0  0  0  0  0  0  0  0  0  0
   -4.9621    1.6603    0.2555 C   0  0  0  0  0  0  0  0  0  0  0  0
   -3.0444   -0.1358    0.3018 C   0  0  0  0  0  0  0  0  0  0  0  0
   -2.5619   -0.9553   -0.9805 C   0  0  0  0  0  0  0  0  0  0  0  0
   -2.3400    0.0819   -2.1012 C   0  0  0  0  0  0  0  0  0  0  0  0
   -1.1243   -1.5164   -0.9557 C   0  0  0  0  0  0  0  0  0  0  0  0
   -0.7083   -2.3105    0.2878 C   0  0  0  0  0  0  0  0  0  0  0  0
   -0.9036   -2.5116   -2.1007 C   0  0  0  0  0  0  0  0  0  0  0  0
   -1.7973   -2.9786   -2.7984 O   0  0  0  0  0  0  0  0  0  0  0  0
   -0.2925   -0.2228   -1.3071 C   0  0  0  0  0  0  0  0  0  0  0  0
    0.8432   -0.1316   -0.4489 O   0  0  0  0  0  0  0  0  0  0  0  0
    2.1188   -0.1202   -1.0640 C   0  0  0  0  0  0  0  0  0  0  0  0
    2.5246    1.2859   -1.3417 C   0  0  0  0  0  0  0  0  0  0  0  0
    3.3735    1.9990   -0.5935 C   0  0  0  0  0  0  0  0  0  0  0  0
    3.9681    1.4476    0.6465 C   0  0  0  0  0  0  0  0  0  0  0  0
    4.6799    2.1918    1.3198 O   0  0  0  0  0  0  0  0  0  0  0  0
    3.6582    0.0114    1.0514 C   0  0  0  0  0  0  0  0  0  0  0  0
    4.9631   -0.6416    1.5360 C   0  0  0  0  0  0  0  0  0  0  0  0
    2.6387    0.0293    2.1973 C   0  0  0  0  0  0  0  0  0  0  0  0
    3.0936   -0.8103   -0.1064 C   0  0  0  0  0  0  0  0  0  0  0  0
    3.3277   -2.0179   -0.2317 O   0  0  0  0  0  0  0  0  0  0  0  0
   -0.8214    0.7772    2.9034 H   0  0  0  0  0  0  0  0  0  0  0  0
   -2.3106   -0.3188    3.0766 H   0  0  0  0  0  0  0  0  0  0  0  0
   -2.8924    2.8494   -1.3539 H   0  0  0  0  0  0  0  0  0  0  0  0
   -5.1902    2.6536   -0.1405 H   0  0  0  0  0  0  0  0  0  0  0  0
   -4.9910    1.7166    1.3481 H   0  0  0  0  0  0  0  0  0  0  0  0
   -5.7454    0.9717   -0.0762 H   0  0  0  0  0  0  0  0  0  0  0  0
   -3.7483   -0.7261    0.8972 H   0  0  0  0  0  0  0  0  0  0  0  0
   -3.3203   -1.6903   -1.2682 H   0  0  0  0  0  0  0  0  0  0  0  0
   -3.2915    0.4621   -2.5151 H   0  0  0  0  0  0  0  0  0  0  0  0
   -1.8898   -0.3169   -3.0250 H   0  0  0  0  0  0  0  0  0  0  0  0
   -0.4427   -1.6908    1.1427 H   0  0  0  0  0  0  0  0  0  0  0  0
   -1.5111   -2.9895    0.5954 H   0  0  0  0  0  0  0  0  0  0  0  0
    0.1781   -2.9269    0.0916 H   0  0  0  0  0  0  0  0  0  0  0  0
    0.1470   -2.8137   -2.2707 H   0  0  0  0  0  0  0  0  0  0  0  0
    0.0901   -0.2890   -2.3392 H   0  0  0  0  0  0  0  0  0  0  0  0
    2.1269   -0.7029   -1.9934 H   0  0  0  0  0  0  0  0  0  0  0  0
    2.0815    1.7611   -2.2132 H   0  0  0  0  0  0  0  0  0  0  0  0
    3.6326    3.0249   -0.8310 H   0  0  0  0  0  0  0  0  0  0  0  0
    5.6870   -0.7269    0.7175 H   0  0  0  0  0  0  0  0  0  0  0  0
    5.4385   -0.0573    2.3328 H   0  0  0  0  0  0  0  0  0  0  0  0
    4.7876   -1.6489    1.9320 H   0  0  0  0  0  0  0  0  0  0  0  0
    3.0725    0.4579    3.1087 H   0  0  0  0  0  0  0  0  0  0  0  0
    2.2869   -0.9812    2.4347 H   0  0  0  0  0  0  0  0  0  0  0  0
    1.7622    0.6355    1.9500 H   0  0  0  0  0  0  0  0  0  0  0  0
  2  1  2  0  0  0  0
  3  2  1  0  0  0  0
  4  3  2  0  0  0  0
  5  3  1  0  0  0  0
  6  5  1  0  0  0  0
  7  6  2  0  0  0  0
  8  7  1  0  0  0  0
  9  7  1  0  0  0  0
  9  2  1  0  0  0  0
 10  9  1  0  0  0  0
 11 10  1  0  0  0  0
 11  5  1  0  0  0  0
 12 10  1  0  0  0  0
 13 12  1  0  0  0  0
 14 12  1  0  0  0  0
 15 14  2  0  0  0  0
 16 12  1  0  0  0  0
 16  5  1  0  0  0  0
 17 16  1  0  0  0  0
 18 17  1  0  0  0  0
 19 18  1  0  0  0  0
 20 19  2  0  0  0  0
 21 20  1  0  0  0  0
 22 21  2  0  0  0  0
 23 21  1  0  0  0  0
 24 23  1  0  0  0  0
 25 23  1  0  0  0  0
 26 23  1  0  0  0  0
 26 18  1  0  0  0  0
 27 26  2  0  0  0  0
  1 28  1  0  0  0  0
  1 29  1  0  0  0  0
  6 30  1  0  0  0  0
  8 31  1  0  0  0  0
  8 32  1  0  0  0  0
  8 33  1  0  0  0  0
  9 34  1  0  0  0  0
 10 35  1  0  0  0  0
 11 36  1  0  0  0  0
 11 37  1  0  0  0  0
 13 38  1  0  0  0  0
 13 39  1  0  0  0  0
 13 40  1  0  0  0  0
 14 41  1  0  0  0  0
 16 42  1  0  0  0  0
 18 43  1  0  0  0  0
 19 44  1  0  0  0  0
 20 45  1  0  0  0  0
 24 46  1  0  0  0  0
 24 47  1  0  0  0  0
 24 48  1  0  0  0  0
 25 49  1  0  0  0  0
 25 50  1  0  0  0  0
 25 51  1  0  0  0  0
M  END
>  <energy>
252.61590100770837

$$$$
