CC1C2NC3N1CN23
                    3D

 17 19  0  0  0  0  0  0  0  0999 V2000
   -1.6359    1.2108   -0.0768 C   0  0  0  0  0  0  0  0  0  0  0  0
   -0.7734    0.1241    0.5460 C   0  0  0  0  0  0  0  0  0  0  0  0
   -0.3635   -0.9525   -0.4146 C   0  0  0  0  0  0  0  0  0  0  0  0
    0.3196   -1.9821    0.4074 N   0  0  0  0  0  0  0  0  0  0  0  0
    1.2454   -0.8745    0.6933 C   0  0  0  0  0  0  0  0  0  0  0  0
    0.6050    0.4660    0.9105 N   0  0  0  0  0  0  0  0  0  0  0  0
    1.2875    0.8125   -0.3699 C   0  0  0  0  0  0  0  0  0  0  0  0
    1.0553   -0.5967   -0.7787 N   0  0  0  0  0  0  0  0  0  0  0  0
   -2.6566    0.8355   -0.2135 H   0  0  0  0  0  0  0  0  0  0  0  0
   -1.2949    1.5272   -1.0667 H   0  0  0  0  0  0  0  0  0  0  0  0
   -1.6864    2.0894    0.5741 H   0  0  0  0  0  0  0  0  0  0  0  0
   -1.3066   -0.2760    1.4193 H   0  0  0  0  0  0  0  0  0  0  0  0
   -1.0163   -1.3225   -1.2062 H   0  0  0  0  0  0  0  0  0  0  0  0
    0.7823   -2.6564   -0.1963 H   0  0  0  0  0  0  0  0  0  0  0  0
    2.2661   -1.0691    1.0344 H   0  0  0  0  0  0  0  0  0  0  0  0
    2.3474    1.0851   -0.2640 H   0  0  0  0  0  0  0  0  0  0  0  0
    0.8248    1.5791   -0.9983 H   0  0  0  0  0  0  0  0  0  0  0  0
  2  1  1  0  0  0  0
  3  2  1  0  0  0  0
  4  3  1  0  0  0  0
  5  4  1  0  0  0  0
  6  5  1  0  0  0  0
  6  2  1  0  0  0  0
  7  6  1  0  0  0  0
  8  7  1  0  0  0  0
  8  3  1  0  0  0  0
  8  5  1  0  0  0  0
  1  9  1  0  0  0  0
  1 10  1  0  0  0  0
  1 11  1  0  0  0  0
  2 12  1  0  0  0  0
  3 13  1  0  0  0  0
  4 14  1  0  0  0  0
  5 15  1  0  0  0  0
  7 16  1  0  0  0  0
  7 17  1  0  0  0  0
M  END
>  <energy>
-13.822228467580715

$$$$
