CC[N+](C)(C)C(=CC1(C)c2c(cc3c4c2CC(C)C(=O)C(=C4C)NC(=O)N3)NC1(C)C)C(=O)NC(C(=O)N
                    3D

106109  0  0  0  0  0  0  0  0999 V2000
   -1.3446   -2.7498   -2.4904 C   0  0  0  0  0  0  0  0  0  0  0  0
   -1.5806   -1.2465   -2.5035 C   0  0  0  0  0  0  0  0  0  0  0  0
   -2.3428   -0.6699   -1.2824 N   0  3  0  0  0  0  0  0  0  0  0  0
   -3.4040   -1.6203   -0.7243 C   0  0  0  0  0  0  0  0  0  0  0  0
   -3.0798    0.5611   -1.8247 C   0  0  0  0  0  0  0  0  0  0  0  0
   -1.3721   -0.2280   -0.2140 C   0  0  0  0  0  0  0  0  0  0  0  0
   -1.8775    0.5222    0.7944 C   0  0  0  0  0  0  0  0  0  0  0  0
   -1.4602    1.9942    1.1472 C   0  0  0  0  0  0  0  0  0  0  0  0
   -2.7134    2.7636    1.5843 C   0  0  0  0  0  0  0  0  0  0  0  0
   -0.6468    2.6450    0.0169 C   0  0  0  0  0  0  0  0  0  0  0  0
    0.7133    2.3460    0.2843 C   0  0  0  0  0  0  0  0  0  0  0  0
    1.7060    2.5101   -0.6621 C   0  0  0  0  0  0  0  0  0  0  0  0
    1.3229    3.0530   -1.8690 C   0  0  0  0  0  0  0  0  0  0  0  0
    0.0899    3.7168   -1.9724 C   0  0  0  0  0  0  0  0  0  0  0  0
   -0.9808    3.4239   -1.1000 C   0  0  0  0  0  0  0  0  0  0  0  0
   -2.3793    3.9388   -1.4187 C   0  0  0  0  0  0  0  0  0  0  0  0
   -2.7706    4.2626   -2.8987 C   0  0  0  0  0  0  0  0  0  0  0  0
   -4.2763    4.0967   -3.1181 C   0  0  0  0  0  0  0  0  0  0  0  0
   -1.9879    3.3938   -3.9158 C   0  0  0  0  0  0  0  0  0  0  0  0
   -2.4522    2.3606   -4.4055 O   0  0  0  0  0  0  0  0  0  0  0  0
   -0.5282    3.7564   -4.1409 C   0  0  0  0  0  0  0  0  0  0  0  0
   -0.0850    4.5577   -3.1659 C   0  0  0  0  0  0  0  0  0  0  0  0
    0.9533    5.6237   -3.3916 C   0  0  0  0  0  0  0  0  0  0  0  0
    0.2665    2.7227   -4.6092 N   0  0  0  0  0  0  0  0  0  0  0  0
    1.4983    2.2937   -4.1972 C   0  0  0  0  0  0  0  0  0  0  0  0
    2.0808    1.4097   -4.8288 O   0  0  0  0  0  0  0  0  0  0  0  0
    2.0796    2.7439   -3.0320 N   0  0  0  0  0  0  0  0  0  0  0  0
    0.9210    1.6753    1.5217 N   0  0  0  0  0  0  0  0  0  0  0  0
   -0.3186    2.0281    2.2797 C   0  0  0  0  0  0  0  0  0  0  0  0
   -0.4968    1.0176    3.4248 C   0  0  0  0  0  0  0  0  0  0  0  0
   -0.1495    3.4359    2.9235 C   0  0  0  0  0  0  0  0  0  0  0  0
   -0.4493   -1.3602    0.2786 C   0  0  0  0  0  0  0  0  0  0  0  0
   -0.8734   -2.4416    0.6481 O   0  0  0  0  0  0  0  0  0  0  0  0
    0.8947   -1.0820    0.1545 N   0  0  0  0  0  0  0  0  0  0  0  0
    1.8643   -2.1236    0.4559 C   0  0  0  0  0  0  0  0  0  0  0  0
    2.2618   -2.0345    1.9781 C   0  0  0  0  0  0  0  0  0  0  0  0
    2.4449   -0.9010    2.4469 O   0  0  0  0  0  0  0  0  0  0  0  0
    2.4858   -3.1819    2.7305 N   0  0  0  0  0  0  0  0  0  0  0  0
    3.0247   -3.0152    4.0837 C   0  0  0  0  0  0  0  0  0  0  0  0
    2.2213   -4.5727    2.3381 C   0  0  0  0  0  0  0  0  0  0  0  0
    0.7490   -4.9889    2.1944 C   0  0  0  0  0  0  0  0  0  0  0  0
   -0.1823   -4.5439    3.3228 C   0  0  0  0  0  0  0  0  0  0  0  0
    0.0252   -5.3135    4.6222 C   0  0  0  0  0  0  0  0  0  0  0  0
   -0.4433   -4.5182    5.7490 N   0  0  0  0  0  0  0  0  0  0  0  0
    3.0874   -1.9191   -0.5209 N   0  3  0  0  0  0  0  0  0  0  0  0
    3.9501   -3.1790   -0.5294 C   0  0  0  0  0  0  0  0  0  0  0  0
    2.6282   -1.6761   -1.9572 C   0  0  0  0  0  0  0  0  0  0  0  0
    3.9696   -0.7610   -0.0760 C   0  0  0  0  0  0  0  0  0  0  0  0
   -2.2787   -3.3143   -2.4090 H   0  0  0  0  0  0  0  0  0  0  0  0
   -0.8846   -3.0448   -3.4415 H   0  0  0  0  0  0  0  0  0  0  0  0
   -0.6701   -3.0762   -1.7005 H   0  0  0  0  0  0  0  0  0  0  0  0
   -2.1857   -1.0306   -3.3956 H   0  0  0  0  0  0  0  0  0  0  0  0
   -0.6397   -0.6915   -2.6099 H   0  0  0  0  0  0  0  0  0  0  0  0
   -3.9764   -1.0949    0.0477 H   0  0  0  0  0  0  0  0  0  0  0  0
   -2.9431   -2.5177   -0.3110 H   0  0  0  0  0  0  0  0  0  0  0  0
   -4.0695   -1.8976   -1.5496 H   0  0  0  0  0  0  0  0  0  0  0  0
   -3.6994    1.0003   -1.0389 H   0  0  0  0  0  0  0  0  0  0  0  0
   -3.7339    0.2548   -2.6492 H   0  0  0  0  0  0  0  0  0  0  0  0
   -2.3157    1.2484   -2.1796 H   0  0  0  0  0  0  0  0  0  0  0  0
   -2.0928   -0.0248    1.7159 H   0  0  0  0  0  0  0  0  0  0  0  0
   -3.0644    2.4150    2.5640 H   0  0  0  0  0  0  0  0  0  0  0  0
   -2.5289    3.8410    1.6531 H   0  0  0  0  0  0  0  0  0  0  0  0
   -3.5483    2.6151    0.8897 H   0  0  0  0  0  0  0  0  0  0  0  0
    2.7090    2.1492   -0.4939 H   0  0  0  0  0  0  0  0  0  0  0  0
   -2.5443    4.8356   -0.8052 H   0  0  0  0  0  0  0  0  0  0  0  0
   -3.0929    3.1967   -1.0707 H   0  0  0  0  0  0  0  0  0  0  0  0
   -2.5493    5.3215   -3.0957 H   0  0  0  0  0  0  0  0  0  0  0  0
   -4.8553    4.7492   -2.4533 H   0  0  0  0  0  0  0  0  0  0  0  0
   -4.5890    3.0607   -2.9329 H   0  0  0  0  0  0  0  0  0  0  0  0
   -4.5427    4.3369   -4.1534 H   0  0  0  0  0  0  0  0  0  0  0  0
    0.4643    6.5246   -3.7764 H   0  0  0  0  0  0  0  0  0  0  0  0
    1.7196    5.3186   -4.1120 H   0  0  0  0  0  0  0  0  0  0  0  0
    1.4506    5.9113   -2.4585 H   0  0  0  0  0  0  0  0  0  0  0  0
   -0.1182    2.2182   -5.4012 H   0  0  0  0  0  0  0  0  0  0  0  0
    2.9682    2.2872   -2.8829 H   0  0  0  0  0  0  0  0  0  0  0  0
    1.7717    1.9984    1.9944 H   0  0  0  0  0  0  0  0  0  0  0  0
   -0.3966   -0.0207    3.0915 H   0  0  0  0  0  0  0  0  0  0  0  0
    0.2674    1.1583    4.1977 H   0  0  0  0  0  0  0  0  0  0  0  0
   -1.4755    1.1318    3.9036 H   0  0  0  0  0  0  0  0  0  0  0  0
    0.7812    3.4831    3.5011 H   0  0  0  0  0  0  0  0  0  0  0  0
   -0.9835    3.6691    3.6014 H   0  0  0  0  0  0  0  0  0  0  0  0
   -0.0942    4.2328    2.1718 H   0  0  0  0  0  0  0  0  0  0  0  0
    1.1461   -0.1448    0.4730 H   0  0  0  0  0  0  0  0  0  0  0  0
    1.4438   -3.0932    0.1951 H   0  0  0  0  0  0  0  0  0  0  0  0
    2.3413   -3.4628    4.8077 H   0  0  0  0  0  0  0  0  0  0  0  0
    3.1742   -1.9648    4.3503 H   0  0  0  0  0  0  0  0  0  0  0  0
    3.9912   -3.5301    4.1302 H   0  0  0  0  0  0  0  0  0  0  0  0
    2.7123   -5.2371    3.0562 H   0  0  0  0  0  0  0  0  0  0  0  0
    2.7142   -4.7465    1.3768 H   0  0  0  0  0  0  0  0  0  0  0  0
    0.7055   -6.0810    2.0879 H   0  0  0  0  0  0  0  0  0  0  0  0
    0.3555   -4.5857    1.2570 H   0  0  0  0  0  0  0  0  0  0  0  0
   -1.2216   -4.6834    2.9892 H   0  0  0  0  0  0  0  0  0  0  0  0
   -0.0611   -3.4626    3.4782 H   0  0  0  0  0  0  0  0  0  0  0  0
    1.0790   -5.5621    4.7841 H   0  0  0  0  0  0  0  0  0  0  0  0
   -0.5285   -6.2538    4.5811 H   0  0  0  0  0  0  0  0  0  0  0  0
   -1.4586   -4.4155    5.7052 H   0  0  0  0  0  0  0  0  0  0  0  0
   -0.2699   -5.0193    6.6228 H   0  0  0  0  0  0  0  0  0  0  0  0
    4.3377   -3.3507    0.4774 H   0  0  0  0  0  0  0  0  0  0  0  0
    3.3335   -4.0184   -0.8675 H   0  0  0  0  0  0  0  0  0  0  0  0
    4.7841   -3.0262   -1.2239 H   0  0  0  0  0  0  0  0  0  0  0  0
    1.9530   -2.4863   -2.2496 H   0  0  0  0  0  0  0  0  0  0  0  0
    3.5080   -1.6638   -2.6095 H   0  0  0  0  0  0  0  0  0  0  0  0
    2.1240   -0.7063   -2.0150 H   0  0  0  0  0  0  0  0  0  0  0  0
    4.7197   -0.5787   -0.8540 H   0  0  0  0  0  0  0  0  0  0  0  0
    4.4686   -1.0194    0.8621 H   0  0  0  0  0  0  0  0  0  0  0  0
    3.3452    0.1224    0.0438 H   0  0  0  0  0  0  0  0  0  0  0  0
  2  1  1  0  0  0  0
  3  2  1  0  0  0  0
  4  3  1  0  0  0  0
  5  3  1  0  0  0  0
  6  3  1  0  0  0  0
  7  6  2  0  0  0  0
  8  7  1  0  0  0  0
  9  8  1  0  0  0  0
 10  8  1  0  0  0  0
 11 10  2  0  0  0  0
 12 11  1  0  0  0  0
 13 12  2  0  0  0  0
 14 13  1  0  0  0  0
 15 14  2  0  0  0  0
 15 10  1  0  0  0  0
 16 15  1  0  0  0  0
 17 16  1  0  0  0  0
 18 17  1  0  0  0  0
 19 17  1  0  0  0  0
 20 19  2  0  0  0  0
 21 19  1  0  0  0  0
 22 21  2  0  0  0  0
 22 14  1  0  0  0  0
 23 22  1  0  0  0  0
 24 21  1  0  0  0  0
 25 24  1  0  0  0  0
 26 25  2  0  0  0  0
 27 25  1  0  0  0  0
 27 13  1  0  0  0  0
 28 11  1  0  0  0  0
 29 28  1  0  0  0  0
 29  8  1  0  0  0  0
 30 29  1  0  0  0  0
 31 29  1  0  0  0  0
 32  6  1  0  0  0  0
 33 32  2  0  0  0  0
 34 32  1  0  0  0  0
 35 34  1  0  0  0  0
 36 35  1  0  0  0  0
 37 36  2  0  0  0  0
 38 36  1  0  0  0  0
 39 38  1  0  0  0  0
 40 38  1  0  0  0  0
 41 40  1  0  0  0  0
 42 41  1  0  0  0  0
 43 42  1  0  0  0  0
 44 43  1  0  0  0  0
 45 35  1  0  0  0  0
 46 45  1  0  0  0  0
 47 45  1  0  0  0  0
 48 45  1  0  0  0  0
  1 49  1  0  0  0  0
  1 50  1  0  0  0  0
  1 51  1  0  0  0  0
  2 52  1  0  0  0  0
  2 53  1  0  0  0  0
  4 54  1  0  0  0  0
  4 55  1  0  0  0  0
  4 56  1  0  0  0  0
  5 57  1  0  0  0  0
  5 58  1  0  0  0  0
  5 59  1  0  0  0  0
  7 60  1  0  0  0  0
  9 61  1  0  0  0  0
  9 62  1  0  0  0  0
  9 63  1  0  0  0  0
 12 64  1  0  0  0  0
 16 65  1  0  0  0  0
 16 66  1  0  0  0  0
 17 67  1  0  0  0  0
 18 68  1  0  0  0  0
 18 69  1  0  0  0  0
 18 70  1  0  0  0  0
 23 71  1  0  0  0  0
 23 72  1  0  0  0  0
 23 73  1  0  0  0  0
 24 74  1  0  0  0  0
 27 75  1  0  0  0  0
 28 76  1  0  0  0  0
 30 77  1  0  0  0  0
 30 78  1  0  0  0  0
 30 79  1  0  0  0  0
 31 80  1  0  0  0  0
 31 81  1  0  0  0  0
 31 82  1  0  0  0  0
 34 83  1  0  0  0  0
 35 84  1  0  0  0  0
 39 85  1  0  0  0  0
 39 86  1  0  0  0  0
 39 87  1  0  0  0  0
 40 88  1  0  0  0  0
 40 89  1  0  0  0  0
 41 90  1  0  0  0  0
 41 91  1  0  0  0  0
 42 92  1  0  0  0  0
 42 93  1  0  0  0  0
 43 94  1  0  0  0  0
 43 95  1  0  0  0  0
 44 96  1  0  0  0  0
 44 97  1  0  0  0  0
 46 98  1  0  0  0  0
 46 99  1  0  0  0  0
 46100  1  0  0  0  0
 47101  1  0  0  0  0
 47102  1  0  0  0  0
 47103  1  0  0  0  0
 48104  1  0  0  0  0
 48105  1  0  0  0  0
 48106  1  0  0  0  0
M  CHG  2   3   1  45   1
M  END
>  <energy>
226.31031041930601

$$$$
