CC1C2(O)CC3CC(C2)(CC24CCC(CC15COOC2C5)C(C)(C)CO4)N3C
                    3D

 65 70  0  0  0  0  0  0  0  0999 V2000
    0.8320   -3.8606   -0.0394 C   0  0  0  0  0  0  0  0  0  0  0  0
    0.6910   -2.3445    0.0710 C   0  0  0  0  0  0  0  0  0  0  0  0
    2.3009   -1.5468    0.3216 C   0  0  0  0  0  0  0  0  0  0  0  0
    3.2547   -2.5037   -0.1836 O   0  0  0  0  0  0  0  0  0  0  0  0
    2.6601   -1.2441    1.8362 C   0  0  0  0  0  0  0  0  0  0  0  0
    2.4807    0.2762    2.2606 C   0  0  0  0  0  0  0  0  0  0  0  0
    1.1573    0.7205    1.6945 C   0  0  0  0  0  0  0  0  0  0  0  0
    2.0343    1.0681    0.3803 C   0  0  0  0  0  0  0  0  0  0  0  0
    2.7557   -0.1559   -0.3398 C   0  0  0  0  0  0  0  0  0  0  0  0
    1.3626    2.2095   -0.6559 C   0  0  0  0  0  0  0  0  0  0  0  0
   -0.1532    1.7615   -1.1398 C   0  0  0  0  0  0  0  0  0  0  0  0
   -1.3724    2.2590   -1.8952 C   0  0  0  0  0  0  0  0  0  0  0  0
   -2.4913    1.0534   -1.7828 C   0  0  0  0  0  0  0  0  0  0  0  0
   -2.2990    0.0200   -0.5578 C   0  0  0  0  0  0  0  0  0  0  0  0
   -1.9183   -1.4980   -0.6843 C   0  0  0  0  0  0  0  0  0  0  0  0
   -0.3582   -1.8095   -1.1312 C   0  0  0  0  0  0  0  0  0  0  0  0
   -0.4423   -2.3045   -2.5760 C   0  0  0  0  0  0  0  0  0  0  0  0
   -1.1960   -1.2692   -3.2825 O   0  0  0  0  0  0  0  0  0  0  0  0
   -0.4708    0.0547   -3.3921 O   0  0  0  0  0  0  0  0  0  0  0  0
    0.1907    0.4889   -2.1849 C   0  0  0  0  0  0  0  0  0  0  0  0
    0.5017   -0.6647   -1.3987 C   0  0  0  0  0  0  0  0  0  0  0  0
   -2.8028    0.6850    0.7427 C   0  0  0  0  0  0  0  0  0  0  0  0
   -4.3002    1.0345    0.7241 C   0  0  0  0  0  0  0  0  0  0  0  0
   -2.5826   -0.1855    1.9961 C   0  0  0  0  0  0  0  0  0  0  0  0
   -1.9340    1.9836    0.8215 C   0  0  0  0  0  0  0  0  0  0  0  0
   -0.6046    1.7789    0.2839 O   0  0  0  0  0  0  0  0  0  0  0  0
    3.1258    1.3753    1.3875 N   0  0  0  0  0  0  0  0  0  0  0  0
    3.0507    2.7031    1.9863 C   0  0  0  0  0  0  0  0  0  0  0  0
    1.3929   -4.2666    0.8087 H   0  0  0  0  0  0  0  0  0  0  0  0
   -0.1523   -4.3418   -0.0443 H   0  0  0  0  0  0  0  0  0  0  0  0
    1.3445   -4.1388   -0.9660 H   0  0  0  0  0  0  0  0  0  0  0  0
    0.1629   -2.1325    1.0093 H   0  0  0  0  0  0  0  0  0  0  0  0
    3.4296   -3.1543    0.5189 H   0  0  0  0  0  0  0  0  0  0  0  0
    2.0354   -1.8726    2.4832 H   0  0  0  0  0  0  0  0  0  0  0  0
    3.7011   -1.5257    2.0374 H   0  0  0  0  0  0  0  0  0  0  0  0
    2.6200    0.4064    3.3393 H   0  0  0  0  0  0  0  0  0  0  0  0
    0.7003    1.5493    2.2480 H   0  0  0  0  0  0  0  0  0  0  0  0
    0.4003   -0.0567    1.6427 H   0  0  0  0  0  0  0  0  0  0  0  0
    3.8475   -0.0945   -0.1744 H   0  0  0  0  0  0  0  0  0  0  0  0
    2.7900   -0.0656   -1.4270 H   0  0  0  0  0  0  0  0  0  0  0  0
    1.2876    3.1570   -0.1083 H   0  0  0  0  0  0  0  0  0  0  0  0
    2.0344    2.3641   -1.5039 H   0  0  0  0  0  0  0  0  0  0  0  0
   -1.1677    2.4577   -2.9547 H   0  0  0  0  0  0  0  0  0  0  0  0
   -1.7808    3.1917   -1.4969 H   0  0  0  0  0  0  0  0  0  0  0  0
   -2.5779    0.5128   -2.7234 H   0  0  0  0  0  0  0  0  0  0  0  0
   -3.4666    1.5481   -1.7232 H   0  0  0  0  0  0  0  0  0  0  0  0
   -1.2851    0.1201   -0.2951 H   0  0  0  0  0  0  0  0  0  0  0  0
   -2.6255   -1.9800   -1.3716 H   0  0  0  0  0  0  0  0  0  0  0  0
   -2.0681   -2.0202    0.2661 H   0  0  0  0  0  0  0  0  0  0  0  0
    0.5070   -2.4840   -3.0945 H   0  0  0  0  0  0  0  0  0  0  0  0
   -1.0236   -3.2312   -2.6357 H   0  0  0  0  0  0  0  0  0  0  0  0
    1.1144    0.8546   -2.6493 H   0  0  0  0  0  0  0  0  0  0  0  0
    1.3848   -1.0968   -1.8812 H   0  0  0  0  0  0  0  0  0  0  0  0
    0.6201   -0.2680   -0.4252 H   0  0  0  0  0  0  0  0  0  0  0  0
   -4.6262    1.4190    1.6984 H   0  0  0  0  0  0  0  0  0  0  0  0
   -4.9016    0.1471    0.4991 H   0  0  0  0  0  0  0  0  0  0  0  0
   -4.5536    1.8093   -0.0045 H   0  0  0  0  0  0  0  0  0  0  0  0
   -1.5504   -0.5155    2.0999 H   0  0  0  0  0  0  0  0  0  0  0  0
   -3.2162   -1.0785    1.9717 H   0  0  0  0  0  0  0  0  0  0  0  0
   -2.8394    0.3643    2.9098 H   0  0  0  0  0  0  0  0  0  0  0  0
   -2.4130    2.8578    0.3717 H   0  0  0  0  0  0  0  0  0  0  0  0
   -1.7939    2.2576    1.8724 H   0  0  0  0  0  0  0  0  0  0  0  0
    2.0604    3.0383    2.3076 H   0  0  0  0  0  0  0  0  0  0  0  0
    3.7093    2.7390    2.8603 H   0  0  0  0  0  0  0  0  0  0  0  0
    3.4270    3.4441    1.2725 H   0  0  0  0  0  0  0  0  0  0  0  0
  2  1  1  0  0  0  0
  3  2  1  0  0  0  0
  4  3  1  0  0  0  0
  5  3  1  0  0  0  0
  6  5  1  0  0  0  0
  7  6  1  0  0  0  0
  8  7  1  0  0  0  0
  9  8  1  0  0  0  0
  9  3  1  0  0  0  0
 10  8  1  0  0  0  0
 11 10  1  0  0  0  0
 12 11  1  0  0  0  0
 13 12  1  0  0  0  0
 14 13  1  0  0  0  0
 15 14  1  0  0  0  0
 16 15  1  0  0  0  0
 16  2  1  0  0  0  0
 17 16  1  0  0  0  0
 18 17  1  0  0  0  0
 19 18  1  0  0  0  0
 20 19  1  0  0  0  0
 20 11  1  0  0  0  0
 21 20  1  0  0  0  0
 21 16  1  0  0  0  0
 22 14  1  0  0  0  0
 23 22  1  0  0  0  0
 24 22  1  0  0  0  0
 25 22  1  0  0  0  0
 26 25  1  0  0  0  0
 26 11  1  0  0  0  0
 27  8  1  0  0  0  0
 27  6  1  0  0  0  0
 28 27  1  0  0  0  0
  1 29  1  0  0  0  0
  1 30  1  0  0  0  0
  1 31  1  0  0  0  0
  2 32  1  0  0  0  0
  4 33  1  0  0  0  0
  5 34  1  0  0  0  0
  5 35  1  0  0  0  0
  6 36  1  0  0  0  0
  7 37  1  0  0  0  0
  7 38  1  0  0  0  0
  9 39  1  0  0  0  0
  9 40  1  0  0  0  0
 10 41  1  0  0  0  0
 10 42  1  0  0  0  0
 12 43  1  0  0  0  0
 12 44  1  0  0  0  0
 13 45  1  0  0  0  0
 13 46  1  0  0  0  0
 14 47  1  0  0  0  0
 15 48  1  0  0  0  0
 15 49  1  0  0  0  0
 17 50  1  0  0  0  0
 17 51  1  0  0  0  0
 20 52  1  0  0  0  0
 21 53  1  0  0  0  0
 21 54  1  0  0  0  0
 23 55  1  0  0  0  0
 23 56  1  0  0  0  0
 23 57  1  0  0  0  0
 24 58  1  0  0  0  0
 24 59  1  0  0  0  0
 24 60  1  0  0  0  0
 25 61  1  0  0  0  0
 25 62  1  0  0  0  0
 28 63  1  0  0  0  0
 28 64  1  0  0  0  0
 28 65  1  0  0  0  0
M  END
>  <energy>
467.89596497467647

$$$$
