CC1CCC2(C)OOC34C5OC26CCC2C5C(O)(OC2(C)C)C6CC3C(C)(C)C14
                    3D

 65 71  0  0  0  0  0  0  0  0999 V2000
    4.7367   -0.8654    0.6640 C   0  0  0  0  0  0  0  0  0  0  0  0
    3.4916   -0.0059    0.9065 C   0  0  0  0  0  0  0  0  0  0  0  0
    3.0195   -0.2234    2.3664 C   0  0  0  0  0  0  0  0  0  0  0  0
    1.5046   -0.2983    2.5929 C   0  0  0  0  0  0  0  0  0  0  0  0
    0.6943    0.9186    2.0942 C   0  0  0  0  0  0  0  0  0  0  0  0
    0.3353    1.7341    3.3664 C   0  0  0  0  0  0  0  0  0  0  0  0
    1.6159    1.9146    1.4394 O   0  0  0  0  0  0  0  0  0  0  0  0
    1.6407    1.9916   -0.0747 O   0  0  0  0  0  0  0  0  0  0  0  0
    1.0365    0.7895   -0.5542 C   0  0  0  0  0  0  0  0  0  0  0  0
   -0.4964    1.3299   -0.7193 C   0  0  0  0  0  0  0  0  0  0  0  0
   -0.7864    1.7540    0.5498 O   0  0  0  0  0  0  0  0  0  0  0  0
   -0.6341    0.5195    1.2866 C   0  0  0  0  0  0  0  0  0  0  0  0
   -2.0545    0.7163    1.9695 C   0  0  0  0  0  0  0  0  0  0  0  0
   -3.2489    1.1905    0.9442 C   0  0  0  0  0  0  0  0  0  0  0  0
   -3.1604    0.9481   -0.6446 C   0  0  0  0  0  0  0  0  0  0  0  0
   -1.7732    0.4895   -1.0330 C   0  0  0  0  0  0  0  0  0  0  0  0
   -1.9681   -0.8917   -0.3502 C   0  0  0  0  0  0  0  0  0  0  0  0
   -2.7033   -1.3126    0.7829 O   0  0  0  0  0  0  0  0  0  0  0  0
   -2.8566   -1.4131   -1.2994 O   0  0  0  0  0  0  0  0  0  0  0  0
   -3.9056   -0.3186   -1.2940 C   0  0  0  0  0  0  0  0  0  0  0  0
   -4.2682   -0.0685   -2.7703 C   0  0  0  0  0  0  0  0  0  0  0  0
   -5.1804   -0.7735   -0.5749 C   0  0  0  0  0  0  0  0  0  0  0  0
   -0.5946   -0.9997    0.2041 C   0  0  0  0  0  0  0  0  0  0  0  0
    0.2268   -1.3145   -1.1628 C   0  0  0  0  0  0  0  0  0  0  0  0
    1.0953   -0.1381   -1.7358 C   0  0  0  0  0  0  0  0  0  0  0  0
    2.6405   -0.3354   -1.6332 C   0  0  0  0  0  0  0  0  0  0  0  0
    3.1506   -1.6512   -2.2360 C   0  0  0  0  0  0  0  0  0  0  0  0
    3.4404    0.8240   -2.2481 C   0  0  0  0  0  0  0  0  0  0  0  0
    2.3633   -0.3600   -0.0804 C   0  0  0  0  0  0  0  0  0  0  0  0
    5.4930   -0.6795    1.4345 H   0  0  0  0  0  0  0  0  0  0  0  0
    4.4935   -1.9333    0.6732 H   0  0  0  0  0  0  0  0  0  0  0  0
    5.1990   -0.6374   -0.2992 H   0  0  0  0  0  0  0  0  0  0  0  0
    3.8019    1.0363    0.7730 H   0  0  0  0  0  0  0  0  0  0  0  0
    3.4476    0.5681    2.9951 H   0  0  0  0  0  0  0  0  0  0  0  0
    3.4404   -1.1602    2.7563 H   0  0  0  0  0  0  0  0  0  0  0  0
    1.3382   -0.4495    3.6687 H   0  0  0  0  0  0  0  0  0  0  0  0
    1.1237   -1.2282    2.1656 H   0  0  0  0  0  0  0  0  0  0  0  0
    1.2431    2.0200    3.9139 H   0  0  0  0  0  0  0  0  0  0  0  0
   -0.3010    1.1703    4.0565 H   0  0  0  0  0  0  0  0  0  0  0  0
   -0.1584    2.6778    3.1060 H   0  0  0  0  0  0  0  0  0  0  0  0
   -0.4830    2.1992   -1.3893 H   0  0  0  0  0  0  0  0  0  0  0  0
   -2.3354   -0.1496    2.5786 H   0  0  0  0  0  0  0  0  0  0  0  0
   -2.0268    1.5376    2.6950 H   0  0  0  0  0  0  0  0  0  0  0  0
   -4.2091    0.8480    1.3433 H   0  0  0  0  0  0  0  0  0  0  0  0
   -3.2889    2.2848    1.0557 H   0  0  0  0  0  0  0  0  0  0  0  0
   -3.4717    1.8672   -1.1539 H   0  0  0  0  0  0  0  0  0  0  0  0
   -1.6976    0.3604   -2.1236 H   0  0  0  0  0  0  0  0  0  0  0  0
   -2.8501   -2.2621    0.6226 H   0  0  0  0  0  0  0  0  0  0  0  0
   -5.0033    0.7374   -2.8656 H   0  0  0  0  0  0  0  0  0  0  0  0
   -4.6876   -0.9754   -3.2214 H   0  0  0  0  0  0  0  0  0  0  0  0
   -3.3961    0.1915   -3.3775 H   0  0  0  0  0  0  0  0  0  0  0  0
   -5.9409    0.0144   -0.5887 H   0  0  0  0  0  0  0  0  0  0  0  0
   -5.5959   -1.6634   -1.0621 H   0  0  0  0  0  0  0  0  0  0  0  0
   -5.0160   -1.0622    0.4653 H   0  0  0  0  0  0  0  0  0  0  0  0
   -0.4844   -1.8565    0.8812 H   0  0  0  0  0  0  0  0  0  0  0  0
   -0.4370   -1.6561   -1.9699 H   0  0  0  0  0  0  0  0  0  0  0  0
    0.8089   -2.2245   -0.9805 H   0  0  0  0  0  0  0  0  0  0  0  0
    0.7445    0.2399   -2.7020 H   0  0  0  0  0  0  0  0  0  0  0  0
    4.2392   -1.7302   -2.1478 H   0  0  0  0  0  0  0  0  0  0  0  0
    2.7332   -2.5358   -1.7488 H   0  0  0  0  0  0  0  0  0  0  0  0
    2.9026   -1.7073   -3.3017 H   0  0  0  0  0  0  0  0  0  0  0  0
    3.1235    1.8093   -1.9020 H   0  0  0  0  0  0  0  0  0  0  0  0
    3.3340    0.8230   -3.3391 H   0  0  0  0  0  0  0  0  0  0  0  0
    4.5072    0.7312   -2.0220 H   0  0  0  0  0  0  0  0  0  0  0  0
    2.0480   -1.3557    0.2550 H   0  0  0  0  0  0  0  0  0  0  0  0
  2  1  1  0  0  0  0
  3  2  1  0  0  0  0
  4  3  1  0  0  0  0
  5  4  1  0  0  0  0
  6  5  1  0  0  0  0
  7  5  1  0  0  0  0
  8  7  1  0  0  0  0
  9  8  1  0  0  0  0
 10  9  1  0  0  0  0
 11 10  1  0  0  0  0
 12 11  1  0  0  0  0
 12  5  1  0  0  0  0
 13 12  1  0  0  0  0
 14 13  1  0  0  0  0
 15 14  1  0  0  0  0
 16 15  1  0  0  0  0
 16 10  1  0  0  0  0
 17 16  1  0  0  0  0
 18 17  1  0  0  0  0
 19 17  1  0  0  0  0
 20 19  1  0  0  0  0
 20 15  1  0  0  0  0
 21 20  1  0  0  0  0
 22 20  1  0  0  0  0
 23 17  1  0  0  0  0
 23 12  1  0  0  0  0
 24 23  1  0  0  0  0
 25 24  1  0  0  0  0
 25  9  1  0  0  0  0
 26 25  1  0  0  0  0
 27 26  1  0  0  0  0
 28 26  1  0  0  0  0
 29 26  1  0  0  0  0
 29  2  1  0  0  0  0
 29  9  1  0  0  0  0
  1 30  1  0  0  0  0
  1 31  1  0  0  0  0
  1 32  1  0  0  0  0
  2 33  1  0  0  0  0
  3 34  1  0  0  0  0
  3 35  1  0  0  0  0
  4 36  1  0  0  0  0
  4 37  1  0  0  0  0
  6 38  1  0  0  0  0
  6 39  1  0  0  0  0
  6 40  1  0  0  0  0
 10 41  1  0  0  0  0
 13 42  1  0  0  0  0
 13 43  1  0  0  0  0
 14 44  1  0  0  0  0
 14 45  1  0  0  0  0
 15 46  1  0  0  0  0
 16 47  1  0  0  0  0
 18 48  1  0  0  0  0
 21 49  1  0  0  0  0
 21 50  1  0  0  0  0
 21 51  1  0  0  0  0
 22 52  1  0  0  0  0
 22 53  1  0  0  0  0
 22 54  1  0  0  0  0
 23 55  1  0  0  0  0
 24 56  1  0  0  0  0
 24 57  1  0  0  0  0
 25 58  1  0  0  0  0
 27 59  1  0  0  0  0
 27 60  1  0  0  0  0
 27 61  1  0  0  0  0
 28 62  1  0  0  0  0
 28 63  1  0  0  0  0
 28 64  1  0  0  0  0
 29 65  1  0  0  0  0
M  END
>  <energy>
409.86018929107973

$$$$
