C=CC(C)(C)C1(OC)C=CC23COC1(O)C2(CC(C(=C)C)C1C(C)CC1COC(C)=O)CC3OC(=O)c1coc(C)c1
                    3D

 88 92  0  0  0  0  0  0  0  0999 V2000
    0.7950    0.0981    3.3855 C   0  0  0  0  0  0  0  0  0  0  0  0
    1.7350   -0.5390    2.6750 C   0  0  0  0  0  0  0  0  0  0  0  0
    1.8040   -2.0288    2.3025 C   0  0  0  0  0  0  0  0  0  0  0  0
    2.8387   -2.6013    3.3241 C   0  0  0  0  0  0  0  0  0  0  0  0
    0.4831   -2.7597    2.6224 C   0  0  0  0  0  0  0  0  0  0  0  0
    2.3226   -2.3290    0.7873 C   0  0  0  0  0  0  0  0  0  0  0  0
    2.7227   -3.7408    0.8300 O   0  0  0  0  0  0  0  0  0  0  0  0
    3.8478   -4.1682    0.0737 C   0  0  0  0  0  0  0  0  0  0  0  0
    3.5060   -1.4303    0.4874 C   0  0  0  0  0  0  0  0  0  0  0  0
    3.4707   -0.5224   -0.4922 C   0  0  0  0  0  0  0  0  0  0  0  0
    2.2478   -0.4459   -1.4044 C   0  0  0  0  0  0  0  0  0  0  0  0
    2.3628   -1.5759   -2.3978 C   0  0  0  0  0  0  0  0  0  0  0  0
    1.8476   -2.7128   -1.6716 O   0  0  0  0  0  0  0  0  0  0  0  0
    1.2573   -2.2072   -0.4201 C   0  0  0  0  0  0  0  0  0  0  0  0
    0.1684   -3.0642   -0.1695 O   0  0  0  0  0  0  0  0  0  0  0  0
    0.7704   -0.7832   -0.8201 C   0  0  0  0  0  0  0  0  0  0  0  0
   -0.4279   -0.8714   -1.8947 C   0  0  0  0  0  0  0  0  0  0  0  0
   -1.9366   -1.1248   -1.5891 C   0  0  0  0  0  0  0  0  0  0  0  0
   -2.3770   -2.5085   -1.1218 C   0  0  0  0  0  0  0  0  0  0  0  0
   -2.3346   -3.5516   -1.9738 C   0  0  0  0  0  0  0  0  0  0  0  0
   -2.8857   -2.7202    0.2768 C   0  0  0  0  0  0  0  0  0  0  0  0
   -2.8725   -0.0075   -1.0578 C   0  0  0  0  0  0  0  0  0  0  0  0
   -2.7789    1.3917   -1.7297 C   0  0  0  0  0  0  0  0  0  0  0  0
   -3.9219    1.7444   -2.6695 C   0  0  0  0  0  0  0  0  0  0  0  0
   -2.8399    2.0551   -0.3458 C   0  0  0  0  0  0  0  0  0  0  0  0
   -3.0105    0.6826    0.3424 C   0  0  0  0  0  0  0  0  0  0  0  0
   -2.0498    0.4233    1.4830 C   0  0  0  0  0  0  0  0  0  0  0  0
   -2.6752   -0.3675    2.5170 O   0  0  0  0  0  0  0  0  0  0  0  0
   -3.1990    0.2041    3.6286 C   0  0  0  0  0  0  0  0  0  0  0  0
   -3.8484    1.5461    3.4544 C   0  0  0  0  0  0  0  0  0  0  0  0
   -3.2018   -0.3844    4.7063 O   0  0  0  0  0  0  0  0  0  0  0  0
    0.8306    0.7186   -0.3441 C   0  0  0  0  0  0  0  0  0  0  0  0
    1.8250    1.0489   -1.4947 C   0  0  0  0  0  0  0  0  0  0  0  0
    1.2862    1.5238   -2.7458 O   0  0  0  0  0  0  0  0  0  0  0  0
    1.9449    2.5918   -3.2912 C   0  0  0  0  0  0  0  0  0  0  0  0
    2.5443    2.4984   -4.3583 O   0  0  0  0  0  0  0  0  0  0  0  0
    1.8444    3.8288   -2.5384 C   0  0  0  0  0  0  0  0  0  0  0  0
    2.6664    4.9220   -2.7170 C   0  0  0  0  0  0  0  0  0  0  0  0
    2.3529    5.9155   -1.8458 O   0  0  0  0  0  0  0  0  0  0  0  0
    1.2950    5.4813   -1.1095 C   0  0  0  0  0  0  0  0  0  0  0  0
    0.7664    6.4130   -0.0936 C   0  0  0  0  0  0  0  0  0  0  0  0
    0.9420    4.2057   -1.4979 C   0  0  0  0  0  0  0  0  0  0  0  0
    0.9025    1.1502    3.6230 H   0  0  0  0  0  0  0  0  0  0  0  0
   -0.0839   -0.3947    3.7820 H   0  0  0  0  0  0  0  0  0  0  0  0
    2.6056    0.0573    2.4047 H   0  0  0  0  0  0  0  0  0  0  0  0
    3.8427   -2.1937    3.1716 H   0  0  0  0  0  0  0  0  0  0  0  0
    2.5507   -2.3571    4.3546 H   0  0  0  0  0  0  0  0  0  0  0  0
    2.9085   -3.6926    3.2690 H   0  0  0  0  0  0  0  0  0  0  0  0
   -0.3643   -2.2612    2.1509 H   0  0  0  0  0  0  0  0  0  0  0  0
    0.5034   -3.8063    2.2992 H   0  0  0  0  0  0  0  0  0  0  0  0
    0.2781   -2.7695    3.7002 H   0  0  0  0  0  0  0  0  0  0  0  0
    4.7740   -3.7839    0.5095 H   0  0  0  0  0  0  0  0  0  0  0  0
    3.8878   -5.2587    0.1380 H   0  0  0  0  0  0  0  0  0  0  0  0
    3.7840   -3.8984   -0.9806 H   0  0  0  0  0  0  0  0  0  0  0  0
    4.3929   -1.5136    1.1062 H   0  0  0  0  0  0  0  0  0  0  0  0
    4.3362    0.1065   -0.6912 H   0  0  0  0  0  0  0  0  0  0  0  0
    1.7793   -1.4302   -3.3129 H   0  0  0  0  0  0  0  0  0  0  0  0
    3.3907   -1.7971   -2.7059 H   0  0  0  0  0  0  0  0  0  0  0  0
    0.5754   -3.9491   -0.1432 H   0  0  0  0  0  0  0  0  0  0  0  0
   -0.3958    0.0223   -2.5212 H   0  0  0  0  0  0  0  0  0  0  0  0
   -0.1677   -1.6750   -2.5927 H   0  0  0  0  0  0  0  0  0  0  0  0
   -2.2911   -1.1549   -2.6389 H   0  0  0  0  0  0  0  0  0  0  0  0
   -1.9681   -3.4407   -2.9896 H   0  0  0  0  0  0  0  0  0  0  0  0
   -2.6424   -4.5470   -1.6731 H   0  0  0  0  0  0  0  0  0  0  0  0
   -3.7743   -2.1179    0.4852 H   0  0  0  0  0  0  0  0  0  0  0  0
   -3.1636   -3.7651    0.4580 H   0  0  0  0  0  0  0  0  0  0  0  0
   -2.1151   -2.4663    1.0007 H   0  0  0  0  0  0  0  0  0  0  0  0
   -3.8806   -0.4157   -1.2716 H   0  0  0  0  0  0  0  0  0  0  0  0
   -1.8239    1.5901   -2.2282 H   0  0  0  0  0  0  0  0  0  0  0  0
   -3.9082    1.1025   -3.5554 H   0  0  0  0  0  0  0  0  0  0  0  0
   -3.8297    2.7809   -3.0061 H   0  0  0  0  0  0  0  0  0  0  0  0
   -4.8986    1.6306   -2.1846 H   0  0  0  0  0  0  0  0  0  0  0  0
   -1.9266    2.6004   -0.0858 H   0  0  0  0  0  0  0  0  0  0  0  0
   -3.6832    2.7363   -0.1887 H   0  0  0  0  0  0  0  0  0  0  0  0
   -4.0464    0.5871    0.7043 H   0  0  0  0  0  0  0  0  0  0  0  0
   -1.1940   -0.1529    1.1371 H   0  0  0  0  0  0  0  0  0  0  0  0
   -1.6526    1.3473    1.9141 H   0  0  0  0  0  0  0  0  0  0  0  0
   -4.6847    1.4671    2.7565 H   0  0  0  0  0  0  0  0  0  0  0  0
   -3.1368    2.3057    3.1316 H   0  0  0  0  0  0  0  0  0  0  0  0
   -4.2538    1.8704    4.4182 H   0  0  0  0  0  0  0  0  0  0  0  0
    1.2482    0.9051    0.6447 H   0  0  0  0  0  0  0  0  0  0  0  0
   -0.1020    1.2763   -0.4107 H   0  0  0  0  0  0  0  0  0  0  0  0
    2.6002    1.7349   -1.1297 H   0  0  0  0  0  0  0  0  0  0  0  0
    3.4943    5.1314   -3.3812 H   0  0  0  0  0  0  0  0  0  0  0  0
    0.8163    7.4475   -0.4469 H   0  0  0  0  0  0  0  0  0  0  0  0
   -0.2792    6.1844    0.1379 H   0  0  0  0  0  0  0  0  0  0  0  0
    1.3478    6.3345    0.8302 H   0  0  0  0  0  0  0  0  0  0  0  0
    0.1293    3.6245   -1.0910 H   0  0  0  0  0  0  0  0  0  0  0  0
  2  1  2  0  0  0  0
  3  2  1  0  0  0  0
  4  3  1  0  0  0  0
  5  3  1  0  0  0  0
  6  3  1  0  0  0  0
  7  6  1  0  0  0  0
  8  7  1  0  0  0  0
  9  6  1  0  0  0  0
 10  9  2  0  0  0  0
 11 10  1  0  0  0  0
 12 11  1  0  0  0  0
 13 12  1  0  0  0  0
 14 13  1  0  0  0  0
 14  6  1  0  0  0  0
 15 14  1  0  0  0  0
 16 14  1  0  0  0  0
 16 11  1  0  0  0  0
 17 16  1  0  0  0  0
 18 17  1  0  0  0  0
 19 18  1  0  0  0  0
 20 19  2  0  0  0  0
 21 19  1  0  0  0  0
 22 18  1  0  0  0  0
 23 22  1  0  0  0  0
 24 23  1  0  0  0  0
 25 23  1  0  0  0  0
 26 25  1  0  0  0  0
 26 22  1  0  0  0  0
 27 26  1  0  0  0  0
 28 27  1  0  0  0  0
 29 28  1  0  0  0  0
 30 29  1  0  0  0  0
 31 29  2  0  0  0  0
 32 16  1  0  0  0  0
 33 32  1  0  0  0  0
 33 11  1  0  0  0  0
 34 33  1  0  0  0  0
 35 34  1  0  0  0  0
 36 35  2  0  0  0  0
 37 35  1  0  0  0  0
 38 37  2  0  0  0  0
 39 38  1  0  0  0  0
 40 39  1  0  0  0  0
 41 40  1  0  0  0  0
 42 40  2  0  0  0  0
 42 37  1  0  0  0  0
  1 43  1  0  0  0  0
  1 44  1  0  0  0  0
  2 45  1  0  0  0  0
  4 46  1  0  0  0  0
  4 47  1  0  0  0  0
  4 48  1  0  0  0  0
  5 49  1  0  0  0  0
  5 50  1  0  0  0  0
  5 51  1  0  0  0  0
  8 52  1  0  0  0  0
  8 53  1  0  0  0  0
  8 54  1  0  0  0  0
  9 55  1  0  0  0  0
 10 56  1  0  0  0  0
 12 57  1  0  0  0  0
 12 58  1  0  0  0  0
 15 59  1  0  0  0  0
 17 60  1  0  0  0  0
 17 61  1  0  0  0  0
 18 62  1  0  0  0  0
 20 63  1  0  0  0  0
 20 64  1  0  0  0  0
 21 65  1  0  0  0  0
 21 66  1  0  0  0  0
 21 67  1  0  0  0  0
 22 68  1  0  0  0  0
 23 69  1  0  0  0  0
 24 70  1  0  0  0  0
 24 71  1  0  0  0  0
 24 72  1  0  0  0  0
 25 73  1  0  0  0  0
 25 74  1  0  0  0  0
 26 75  1  0  0  0  0
 27 76  1  0  0  0  0
 27 77  1  0  0  0  0
 30 78  1  0  0  0  0
 30 79  1  0  0  0  0
 30 80  1  0  0  0  0
 32 81  1  0  0  0  0
 32 82  1  0  0  0  0
 33 83  1  0  0  0  0
 38 84  1  0  0  0  0
 41 85  1  0  0  0  0
 41 86  1  0  0  0  0
 41 87  1  0  0  0  0
 42 88  1  0  0  0  0
M  END
>  <energy>
250.27732445793396

$$$$
