Cc1ccccc1N=C(N=C1C2=NC(=Cc3cccc1c3)Cc1cccc2c1)Nc1ccccc1
                    3D

 59 64  0  0  0  0  0  0  0  0999 V2000
   -1.7860   -2.3156   -2.9573 C   0  0  0  0  0  0  0  0  0  0  0  0
   -2.7117   -1.6152   -2.0052 C   0  0  0  0  0  0  0  0  0  0  0  0
   -3.7833   -2.3297   -1.4459 C   0  0  0  0  0  0  0  0  0  0  0  0
   -4.7128   -1.6862   -0.6358 C   0  0  0  0  0  0  0  0  0  0  0  0
   -4.5976   -0.3204   -0.4017 C   0  0  0  0  0  0  0  0  0  0  0  0
   -3.5215    0.3911   -0.9415 C   0  0  0  0  0  0  0  0  0  0  0  0
   -2.5360   -0.2505   -1.7029 C   0  0  0  0  0  0  0  0  0  0  0  0
   -1.4346    0.4359   -2.2513 N   0  0  0  0  0  0  0  0  0  0  0  0
   -0.6223    1.1544   -1.5247 C   0  0  0  0  0  0  0  0  0  0  0  0
   -0.8132    1.3514   -0.1959 N   0  0  0  0  0  0  0  0  0  0  0  0
   -0.2140    0.6296    0.6991 C   0  0  0  0  0  0  0  0  0  0  0  0
    0.6851   -0.6330    0.5079 C   0  0  0  0  0  0  0  0  0  0  0  0
    0.3971   -1.6244    1.3379 N   0  0  0  0  0  0  0  0  0  0  0  0
    1.3791   -2.0651    2.2532 C   0  0  0  0  0  0  0  0  0  0  0  0
    1.3715   -1.5420    3.5126 C   0  0  0  0  0  0  0  0  0  0  0  0
    0.4492   -0.4088    3.7964 C   0  0  0  0  0  0  0  0  0  0  0  0
   -0.8269   -0.6281    4.3261 C   0  0  0  0  0  0  0  0  0  0  0  0
   -1.9119    0.0986    3.8186 C   0  0  0  0  0  0  0  0  0  0  0  0
   -1.7304    0.8433    2.6531 C   0  0  0  0  0  0  0  0  0  0  0  0
   -0.4335    0.9874    2.1566 C   0  0  0  0  0  0  0  0  0  0  0  0
    0.6541    0.6909    2.9668 C   0  0  0  0  0  0  0  0  0  0  0  0
    2.5334   -2.9729    1.7751 C   0  0  0  0  0  0  0  0  0  0  0  0
    3.1264   -2.3907    0.4787 C   0  0  0  0  0  0  0  0  0  0  0  0
    2.9969   -3.1436   -0.6923 C   0  0  0  0  0  0  0  0  0  0  0  0
    2.3616   -2.5397   -1.7702 C   0  0  0  0  0  0  0  0  0  0  0  0
    1.7648   -1.2871   -1.5721 C   0  0  0  0  0  0  0  0  0  0  0  0
    1.9380   -0.6177   -0.3484 C   0  0  0  0  0  0  0  0  0  0  0  0
    3.0465   -0.9984    0.3884 C   0  0  0  0  0  0  0  0  0  0  0  0
    0.4244    1.7767   -2.1688 N   0  0  0  0  0  0  0  0  0  0  0  0
    0.9999    2.9662   -1.6783 C   0  0  0  0  0  0  0  0  0  0  0  0
    0.2680    4.1544   -1.5764 C   0  0  0  0  0  0  0  0  0  0  0  0
    0.8801    5.3241   -1.1160 C   0  0  0  0  0  0  0  0  0  0  0  0
    2.2285    5.3219   -0.7659 C   0  0  0  0  0  0  0  0  0  0  0  0
    2.9690    4.1481   -0.8823 C   0  0  0  0  0  0  0  0  0  0  0  0
    2.3616    2.9807   -1.3531 C   0  0  0  0  0  0  0  0  0  0  0  0
   -1.8270   -1.8342   -3.9378 H   0  0  0  0  0  0  0  0  0  0  0  0
   -2.0687   -3.3620   -3.0979 H   0  0  0  0  0  0  0  0  0  0  0  0
   -0.7612   -2.3057   -2.5874 H   0  0  0  0  0  0  0  0  0  0  0  0
   -3.8997   -3.3909   -1.6529 H   0  0  0  0  0  0  0  0  0  0  0  0
   -5.5368   -2.2482   -0.2074 H   0  0  0  0  0  0  0  0  0  0  0  0
   -5.3466    0.1930    0.1958 H   0  0  0  0  0  0  0  0  0  0  0  0
   -3.4478    1.4574   -0.7562 H   0  0  0  0  0  0  0  0  0  0  0  0
    2.1032   -1.7996    4.2703 H   0  0  0  0  0  0  0  0  0  0  0  0
   -1.0123   -1.4599    4.9992 H   0  0  0  0  0  0  0  0  0  0  0  0
   -2.9132   -0.0822    4.2013 H   0  0  0  0  0  0  0  0  0  0  0  0
   -2.5902    1.1407    2.0622 H   0  0  0  0  0  0  0  0  0  0  0  0
    1.6516    0.8665    2.5676 H   0  0  0  0  0  0  0  0  0  0  0  0
    2.1384   -3.9824    1.5981 H   0  0  0  0  0  0  0  0  0  0  0  0
    3.3343   -3.0547    2.5205 H   0  0  0  0  0  0  0  0  0  0  0  0
    3.1565   -4.2216   -0.7007 H   0  0  0  0  0  0  0  0  0  0  0  0
    2.1404   -3.1100   -2.6690 H   0  0  0  0  0  0  0  0  0  0  0  0
    1.0099   -0.9612   -2.2804 H   0  0  0  0  0  0  0  0  0  0  0  0
    3.2544   -0.4206    1.2926 H   0  0  0  0  0  0  0  0  0  0  0  0
    0.2203    1.8348   -3.1602 H   0  0  0  0  0  0  0  0  0  0  0  0
   -0.7858    4.1712   -1.8434 H   0  0  0  0  0  0  0  0  0  0  0  0
    0.3014    6.2374   -1.0339 H   0  0  0  0  0  0  0  0  0  0  0  0
    2.7024    6.2314   -0.4034 H   0  0  0  0  0  0  0  0  0  0  0  0
    4.0219    4.1407   -0.6103 H   0  0  0  0  0  0  0  0  0  0  0  0
    2.9551    2.0745   -1.4511 H   0  0  0  0  0  0  0  0  0  0  0  0
  2  1  1  0  0  0  0
  3  2  2  0  0  0  0
  4  3  1  0  0  0  0
  5  4  2  0  0  0  0
  6  5  1  0  0  0  0
  7  6  2  0  0  0  0
  7  2  1  0  0  0  0
  8  7  1  0  0  0  0
  9  8  2  0  0  0  0
 10  9  1  0  0  0  0
 11 10  2  0  0  0  0
 12 11  1  0  0  0  0
 13 12  2  0  0  0  0
 14 13  1  0  0  0  0
 15 14  2  0  0  0  0
 16 15  1  0  0  0  0
 17 16  2  0  0  0  0
 18 17  1  0  0  0  0
 19 18  2  0  0  0  0
 20 19  1  0  0  0  0
 20 11  1  0  0  0  0
 21 20  2  0  0  0  0
 21 16  1  0  0  0  0
 22 14  1  0  0  0  0
 23 22  1  0  0  0  0
 24 23  2  0  0  0  0
 25 24  1  0  0  0  0
 26 25  2  0  0  0  0
 27 26  1  0  0  0  0
 27 12  1  0  0  0  0
 28 27  2  0  0  0  0
 28 23  1  0  0  0  0
 29  9  1  0  0  0  0
 30 29  1  0  0  0  0
 31 30  2  0  0  0  0
 32 31  1  0  0  0  0
 33 32  2  0  0  0  0
 34 33  1  0  0  0  0
 35 34  2  0  0  0  0
 35 30  1  0  0  0  0
  1 36  1  0  0  0  0
  1 37  1  0  0  0  0
  1 38  1  0  0  0  0
  3 39  1  0  0  0  0
  4 40  1  0  0  0  0
  5 41  1  0  0  0  0
  6 42  1  0  0  0  0
 15 43  1  0  0  0  0
 17 44  1  0  0  0  0
 18 45  1  0  0  0  0
 19 46  1  0  0  0  0
 21 47  1  0  0  0  0
 22 48  1  0  0  0  0
 22 49  1  0  0  0  0
 24 50  1  0  0  0  0
 25 51  1  0  0  0  0
 26 52  1  0  0  0  0
 28 53  1  0  0  0  0
 29 54  1  0  0  0  0
 31 55  1  0  0  0  0
 32 56  1  0  0  0  0
 33 57  1  0  0  0  0
 34 58  1  0  0  0  0
 35 59  1  0  0  0  0
M  END
>  <energy>
266.32672473818195

$$$$
