CC1(O)CCCC2(C)OC3(C)C2C1C3(C)C
                    3D

 40 42  0  0  0  0  0  0  0  0999 V2000
    2.3296   -2.2476   -0.4075 C   0  0  0  0  0  0  0  0  0  0  0  0
    1.4690   -1.2677    0.4160 C   0  0  0  0  0  0  0  0  0  0  0  0
    2.3613   -0.5946    1.3023 O   0  0  0  0  0  0  0  0  0  0  0  0
    0.4952   -2.0984    1.2516 C   0  0  0  0  0  0  0  0  0  0  0  0
   -0.4571   -1.2857    2.1188 C   0  0  0  0  0  0  0  0  0  0  0  0
   -1.8090   -1.1097    1.4566 C   0  0  0  0  0  0  0  0  0  0  0  0
   -1.8272   -0.2708    0.1802 C   0  0  0  0  0  0  0  0  0  0  0  0
   -3.2040   -0.4657   -0.4926 C   0  0  0  0  0  0  0  0  0  0  0  0
   -1.6421    1.1385    0.4732 O   0  0  0  0  0  0  0  0  0  0  0  0
   -0.7425    1.2932   -0.6563 C   0  0  0  0  0  0  0  0  0  0  0  0
   -1.3160    2.2423   -1.6842 C   0  0  0  0  0  0  0  0  0  0  0  0
   -0.7112   -0.2329   -0.8851 C   0  0  0  0  0  0  0  0  0  0  0  0
    0.7917   -0.2517   -0.5233 C   0  0  0  0  0  0  0  0  0  0  0  0
    0.7828    1.3221   -0.3366 C   0  0  0  0  0  0  0  0  0  0  0  0
    1.6650    1.9945   -1.4062 C   0  0  0  0  0  0  0  0  0  0  0  0
    1.0620    1.9938    1.0088 C   0  0  0  0  0  0  0  0  0  0  0  0
    1.7240   -2.8095   -1.1268 H   0  0  0  0  0  0  0  0  0  0  0  0
    3.1117   -1.7156   -0.9623 H   0  0  0  0  0  0  0  0  0  0  0  0
    2.8485   -2.9592    0.2454 H   0  0  0  0  0  0  0  0  0  0  0  0
    3.0568   -0.1704    0.7708 H   0  0  0  0  0  0  0  0  0  0  0  0
    1.0865   -2.7259    1.9337 H   0  0  0  0  0  0  0  0  0  0  0  0
   -0.0690   -2.7879    0.6108 H   0  0  0  0  0  0  0  0  0  0  0  0
   -0.0272   -0.3336    2.4272 H   0  0  0  0  0  0  0  0  0  0  0  0
   -0.6264   -1.8478    3.0471 H   0  0  0  0  0  0  0  0  0  0  0  0
   -2.4978   -0.6660    2.1881 H   0  0  0  0  0  0  0  0  0  0  0  0
   -2.2108   -2.1095    1.2427 H   0  0  0  0  0  0  0  0  0  0  0  0
   -4.0155   -0.2192    0.2013 H   0  0  0  0  0  0  0  0  0  0  0  0
   -3.3300    0.1594   -1.3806 H   0  0  0  0  0  0  0  0  0  0  0  0
   -3.3314   -1.5070   -0.8095 H   0  0  0  0  0  0  0  0  0  0  0  0
   -0.8510    2.1020   -2.6647 H   0  0  0  0  0  0  0  0  0  0  0  0
   -1.1568    3.2816   -1.3785 H   0  0  0  0  0  0  0  0  0  0  0  0
   -2.3929    2.1069   -1.8164 H   0  0  0  0  0  0  0  0  0  0  0  0
   -0.9643   -0.5793   -1.8910 H   0  0  0  0  0  0  0  0  0  0  0  0
    1.2991   -0.4413   -1.4883 H   0  0  0  0  0  0  0  0  0  0  0  0
    1.5053    3.0785   -1.4228 H   0  0  0  0  0  0  0  0  0  0  0  0
    2.7256    1.8143   -1.1976 H   0  0  0  0  0  0  0  0  0  0  0  0
    1.4574    1.6140   -2.4122 H   0  0  0  0  0  0  0  0  0  0  0  0
    0.7928    3.0559    0.9686 H   0  0  0  0  0  0  0  0  0  0  0  0
    2.1238    1.9424    1.2695 H   0  0  0  0  0  0  0  0  0  0  0  0
    0.4940    1.5576    1.8300 H   0  0  0  0  0  0  0  0  0  0  0  0
  2  1  1  0  0  0  0
  3  2  1  0  0  0  0
  4  2  1  0  0  0  0
  5  4  1  0  0  0  0
  6  5  1  0  0  0  0
  7  6  1  0  0  0  0
  8  7  1  0  0  0  0
  9  7  1  0  0  0  0
 10  9  1  0  0  0  0
 11 10  1  0  0  0  0
 12 10  1  0  0  0  0
 12  7  1  0  0  0  0
 13 12  1  0  0  0  0
 13  2  1  0  0  0  0
 14 13  1  0  0  0  0
 14 10  1  0  0  0  0
 15 14  1  0  0  0  0
 16 14  1  0  0  0  0
  1 17  1  0  0  0  0
  1 18  1  0  0  0  0
  1 19  1  0  0  0  0
  3 20  1  0  0  0  0
  4 21  1  0  0  0  0
  4 22  1  0  0  0  0
  5 23  1  0  0  0  0
  5 24  1  0  0  0  0
  6 25  1  0  0  0  0
  6 26  1  0  0  0  0
  8 27  1  0  0  0  0
  8 28  1  0  0  0  0
  8 29  1  0  0  0  0
 11 30  1  0  0  0  0
 11 31  1  0  0  0  0
 11 32  1  0  0  0  0
 12 33  1  0  0  0  0
 13 34  1  0  0  0  0
 15 35  1  0  0  0  0
 15 36  1  0  0  0  0
 15 37  1  0  0  0  0
 16 38  1  0  0  0  0
 16 39  1  0  0  0  0
 16 40  1  0  0  0  0
M  END
>  <energy>
59.072925098760997

$$$$
