C=CC1CC2(Cl)C1OC2n1cccn1
                    3D

 25 27  0  0  0  0  0  0  0  0999 V2000
   -4.0208    1.0894   -0.1079 C   0  0  0  0  0  0  0  0  0  0  0  0
   -3.1499    0.0870    0.0486 C   0  0  0  0  0  0  0  0  0  0  0  0
   -1.7085    0.3639    0.2882 C   0  0  0  0  0  0  0  0  0  0  0  0
   -0.7652   -0.0380   -0.8684 C   0  0  0  0  0  0  0  0  0  0  0  0
   -0.2565   -1.2447   -0.0418 C   0  0  0  0  0  0  0  0  0  0  0  0
   -0.6567   -2.8779   -0.5851 Cl  0  0  0  0  0  0  0  0  0  0  0  0
   -0.9938   -0.6691    1.1760 C   0  0  0  0  0  0  0  0  0  0  0  0
    0.2396   -0.2664    1.8123 O   0  0  0  0  0  0  0  0  0  0  0  0
    1.0067   -1.0072    0.8111 C   0  0  0  0  0  0  0  0  0  0  0  0
    2.0708   -0.3274    0.1083 N   0  0  0  0  0  0  0  0  0  0  0  0
    2.6617    0.8268    0.5474 C   0  0  0  0  0  0  0  0  0  0  0  0
    3.6746    1.0978   -0.3404 C   0  0  0  0  0  0  0  0  0  0  0  0
    3.6192    0.0470   -1.2758 C   0  0  0  0  0  0  0  0  0  0  0  0
    2.6390   -0.8227   -1.0093 N   0  0  0  0  0  0  0  0  0  0  0  0
   -3.7240    2.1331   -0.0745 H   0  0  0  0  0  0  0  0  0  0  0  0
   -5.0753    0.8796   -0.2668 H   0  0  0  0  0  0  0  0  0  0  0  0
   -3.4968   -0.9439    0.0109 H   0  0  0  0  0  0  0  0  0  0  0  0
   -1.5306    1.3918    0.6358 H   0  0  0  0  0  0  0  0  0  0  0  0
   -0.0214    0.7252   -1.1220 H   0  0  0  0  0  0  0  0  0  0  0  0
   -1.2681   -0.3141   -1.8044 H   0  0  0  0  0  0  0  0  0  0  0  0
   -1.5867   -1.3469    1.7956 H   0  0  0  0  0  0  0  0  0  0  0  0
    1.4007   -1.9242    1.2715 H   0  0  0  0  0  0  0  0  0  0  0  0
    2.3180    1.3345    1.4388 H   0  0  0  0  0  0  0  0  0  0  0  0
    4.3674    1.9268   -0.3121 H   0  0  0  0  0  0  0  0  0  0  0  0
    4.2568   -0.1204   -2.1359 H   0  0  0  0  0  0  0  0  0  0  0  0
  2  1  2  0  0  0  0
  3  2  1  0  0  0  0
  4  3  1  0  0  0  0
  5  4  1  0  0  0  0
  6  5  1  0  0  0  0
  7  5  1  0  0  0  0
  7  3  1  0  0  0  0
  8  7  1  0  0  0  0
  9  8  1  0  0  0  0
  9  5  1  0  0  0  0
 10  9  1  0  0  0  0
 11 10  1  0  0  0  0
 12 11  2  0  0  0  0
 13 12  1  0  0  0  0
 14 13  2  0  0  0  0
 14 10  1  0  0  0  0
  1 15  1  0  0  0  0
  1 16  1  0  0  0  0
  2 17  1  0  0  0  0
  3 18  1  0  0  0  0
  4 19  1  0  0  0  0
  4 20  1  0  0  0  0
  7 21  1  0  0  0  0
  9 22  1  0  0  0  0
 11 23  1  0  0  0  0
 12 24  1  0  0  0  0
 13 25  1  0  0  0  0
M  END
>  <energy>
67.485051940492681

$$$$
