C=C1C(=O)C23CCC1C(CCC(C)(C(=O)OCC)C2)C1OC32C1C2(Cn1cc(C(=O)O)cn1)OC
                    3D

 67 72  0  0  0  0  0  0  0  0999 V2000
    0.5437   -3.2185   -2.9932 C   0  0  0  0  0  0  0  0  0  0  0  0
   -0.0360   -2.5555   -1.9804 C   0  0  0  0  0  0  0  0  0  0  0  0
    0.1549   -0.9978   -1.8678 C   0  0  0  0  0  0  0  0  0  0  0  0
    0.6530   -0.2977   -2.7374 O   0  0  0  0  0  0  0  0  0  0  0  0
   -0.3318   -0.5405   -0.4825 C   0  0  0  0  0  0  0  0  0  0  0  0
   -1.8450   -0.9844   -0.9457 C   0  0  0  0  0  0  0  0  0  0  0  0
   -2.2296   -2.4358   -1.1083 C   0  0  0  0  0  0  0  0  0  0  0  0
   -0.9626   -3.1857   -0.8650 C   0  0  0  0  0  0  0  0  0  0  0  0
   -0.6772   -3.1361    0.7425 C   0  0  0  0  0  0  0  0  0  0  0  0
   -1.6011   -2.4182    1.8126 C   0  0  0  0  0  0  0  0  0  0  0  0
   -2.2795   -0.9975    1.8206 C   0  0  0  0  0  0  0  0  0  0  0  0
   -1.6316    0.4552    1.5774 C   0  0  0  0  0  0  0  0  0  0  0  0
   -0.8522    0.8337    2.8594 C   0  0  0  0  0  0  0  0  0  0  0  0
   -2.8598    1.4381    1.5832 C   0  0  0  0  0  0  0  0  0  0  0  0
   -3.3263    1.9826    2.5725 O   0  0  0  0  0  0  0  0  0  0  0  0
   -3.3875    1.5739    0.3344 O   0  0  0  0  0  0  0  0  0  0  0  0
   -4.4490    2.5280    0.1906 C   0  0  0  0  0  0  0  0  0  0  0  0
   -4.6241    2.7660   -1.2980 C   0  0  0  0  0  0  0  0  0  0  0  0
   -0.7690    0.7414    0.2170 C   0  0  0  0  0  0  0  0  0  0  0  0
    0.7914   -2.8604    1.1118 C   0  0  0  0  0  0  0  0  0  0  0  0
    1.4627   -2.4068   -0.0585 O   0  0  0  0  0  0  0  0  0  0  0  0
    0.9581   -1.0809    0.2646 C   0  0  0  0  0  0  0  0  0  0  0  0
    1.1817   -1.4577    1.6963 C   0  0  0  0  0  0  0  0  0  0  0  0
    2.0108   -0.2874    0.9535 C   0  0  0  0  0  0  0  0  0  0  0  0
    3.4190   -0.4676    0.3838 C   0  0  0  0  0  0  0  0  0  0  0  0
    3.8795    0.6139   -0.4945 N   0  0  0  0  0  0  0  0  0  0  0  0
    3.1417    1.4772   -1.2532 C   0  0  0  0  0  0  0  0  0  0  0  0
    4.0307    2.2716   -1.9538 C   0  0  0  0  0  0  0  0  0  0  0  0
    3.7708    3.3212   -2.9166 C   0  0  0  0  0  0  0  0  0  0  0  0
    4.6242    3.9236   -3.5428 O   0  0  0  0  0  0  0  0  0  0  0  0
    2.4593    3.6164   -3.0983 O   0  0  0  0  0  0  0  0  0  0  0  0
    5.2883    1.8144   -1.5094 C   0  0  0  0  0  0  0  0  0  0  0  0
    5.2093    0.8361   -0.6067 N   0  0  0  0  0  0  0  0  0  0  0  0
    1.7263    1.0182    1.5248 O   0  0  0  0  0  0  0  0  0  0  0  0
    2.7803    1.7144    2.1877 C   0  0  0  0  0  0  0  0  0  0  0  0
    0.4241   -4.2871   -3.1112 H   0  0  0  0  0  0  0  0  0  0  0  0
    1.1623   -2.6952   -3.7145 H   0  0  0  0  0  0  0  0  0  0  0  0
   -2.6620   -0.4981   -0.4264 H   0  0  0  0  0  0  0  0  0  0  0  0
   -2.0175   -0.5031   -1.9326 H   0  0  0  0  0  0  0  0  0  0  0  0
   -2.6333   -2.6102   -2.1144 H   0  0  0  0  0  0  0  0  0  0  0  0
   -3.0213   -2.7351   -0.4197 H   0  0  0  0  0  0  0  0  0  0  0  0
   -1.1176   -4.2438   -1.1202 H   0  0  0  0  0  0  0  0  0  0  0  0
   -0.8253   -4.1975    1.0016 H   0  0  0  0  0  0  0  0  0  0  0  0
   -1.0827   -2.5121    2.7785 H   0  0  0  0  0  0  0  0  0  0  0  0
   -2.4568   -3.1056    1.9218 H   0  0  0  0  0  0  0  0  0  0  0  0
   -2.7016   -0.9361    2.8411 H   0  0  0  0  0  0  0  0  0  0  0  0
   -3.2124   -1.0953    1.2487 H   0  0  0  0  0  0  0  0  0  0  0  0
   -0.0322    0.1556    3.0956 H   0  0  0  0  0  0  0  0  0  0  0  0
   -0.4572    1.8556    2.8010 H   0  0  0  0  0  0  0  0  0  0  0  0
   -1.5074    0.8050    3.7429 H   0  0  0  0  0  0  0  0  0  0  0  0
   -4.2045    3.4690    0.6991 H   0  0  0  0  0  0  0  0  0  0  0  0
   -5.3647    2.1008    0.6088 H   0  0  0  0  0  0  0  0  0  0  0  0
   -5.3287    3.5775   -1.5011 H   0  0  0  0  0  0  0  0  0  0  0  0
   -3.6617    3.0069   -1.7629 H   0  0  0  0  0  0  0  0  0  0  0  0
   -4.9878    1.8528   -1.7836 H   0  0  0  0  0  0  0  0  0  0  0  0
    0.0277    1.4558    0.3950 H   0  0  0  0  0  0  0  0  0  0  0  0
   -1.3444    1.3273   -0.5045 H   0  0  0  0  0  0  0  0  0  0  0  0
    1.2734   -3.7348    1.5535 H   0  0  0  0  0  0  0  0  0  0  0  0
    1.9514   -1.8364    2.3670 H   0  0  0  0  0  0  0  0  0  0  0  0
    3.5255   -1.3689   -0.2265 H   0  0  0  0  0  0  0  0  0  0  0  0
    4.1422   -0.5559    1.2022 H   0  0  0  0  0  0  0  0  0  0  0  0
    2.0614    1.4680   -1.2602 H   0  0  0  0  0  0  0  0  0  0  0  0
    2.4648    4.3205   -3.7776 H   0  0  0  0  0  0  0  0  0  0  0  0
    6.2647    2.1636   -1.8255 H   0  0  0  0  0  0  0  0  0  0  0  0
    2.3051    2.3973    2.9035 H   0  0  0  0  0  0  0  0  0  0  0  0
    3.3443    2.3357    1.4727 H   0  0  0  0  0  0  0  0  0  0  0  0
    3.4490    1.0263    2.7274 H   0  0  0  0  0  0  0  0  0  0  0  0
  2  1  2  0  0  0  0
  3  2  1  0  0  0  0
  4  3  2  0  0  0  0
  5  3  1  0  0  0  0
  6  5  1  0  0  0  0
  7  6  1  0  0  0  0
  8  7  1  0  0  0  0
  8  2  1  0  0  0  0
  9  8  1  0  0  0  0
 10  9  1  0  0  0  0
 11 10  1  0  0  0  0
 12 11  1  0  0  0  0
 13 12  1  0  0  0  0
 14 12  1  0  0  0  0
 15 14  2  0  0  0  0
 16 14  1  0  0  0  0
 17 16  1  0  0  0  0
 18 17  1  0  0  0  0
 19 12  1  0  0  0  0
 19  5  1  0  0  0  0
 20  9  1  0  0  0  0
 21 20  1  0  0  0  0
 22 21  1  0  0  0  0
 22  5  1  0  0  0  0
 23 22  1  0  0  0  0
 23 20  1  0  0  0  0
 24 23  1  0  0  0  0
 24 22  1  0  0  0  0
 25 24  1  0  0  0  0
 26 25  1  0  0  0  0
 27 26  1  0  0  0  0
 28 27  2  0  0  0  0
 29 28  1  0  0  0  0
 30 29  2  0  0  0  0
 31 29  1  0  0  0  0
 32 28  1  0  0  0  0
 33 32  2  0  0  0  0
 33 26  1  0  0  0  0
 34 24  1  0  0  0  0
 35 34  1  0  0  0  0
  1 36  1  0  0  0  0
  1 37  1  0  0  0  0
  6 38  1  0  0  0  0
  6 39  1  0  0  0  0
  7 40  1  0  0  0  0
  7 41  1  0  0  0  0
  8 42  1  0  0  0  0
  9 43  1  0  0  0  0
 10 44  1  0  0  0  0
 10 45  1  0  0  0  0
 11 46  1  0  0  0  0
 11 47  1  0  0  0  0
 13 48  1  0  0  0  0
 13 49  1  0  0  0  0
 13 50  1  0  0  0  0
 17 51  1  0  0  0  0
 17 52  1  0  0  0  0
 18 53  1  0  0  0  0
 18 54  1  0  0  0  0
 18 55  1  0  0  0  0
 19 56  1  0  0  0  0
 19 57  1  0  0  0  0
 20 58  1  0  0  0  0
 23 59  1  0  0  0  0
 25 60  1  0  0  0  0
 25 61  1  0  0  0  0
 27 62  1  0  0  0  0
 31 63  1  0  0  0  0
 32 64  1  0  0  0  0
 35 65  1  0  0  0  0
 35 66  1  0  0  0  0
 35 67  1  0  0  0  0
M  END
>  <energy>
274.77087379392293

$$$$
