CC12Cc3ccc(C#N)nc3N=c3cc[n+]4cccc1c4c3=Nc1c([N+](=O)[O-])cccc12
                    3D

 47 52  0  0  0  0  0  0  0  0999 V2000
    1.5792   -1.4087    2.4423 C   0  0  0  0  0  0  0  0  0  0  0  0
    0.8314   -0.7692    1.2216 C   0  0  0  0  0  0  0  0  0  0  0  0
   -0.1960    0.3228    1.7993 C   0  0  0  0  0  0  0  0  0  0  0  0
   -1.1547    1.2306    1.0074 C   0  0  0  0  0  0  0  0  0  0  0  0
   -2.1369    1.8958    1.7658 C   0  0  0  0  0  0  0  0  0  0  0  0
   -3.0248    2.7861    1.1634 C   0  0  0  0  0  0  0  0  0  0  0  0
   -2.9282    2.9813   -0.2041 C   0  0  0  0  0  0  0  0  0  0  0  0
   -3.8269    3.8739   -0.8803 C   0  0  0  0  0  0  0  0  0  0  0  0
   -4.5894    4.5774   -1.3976 N   0  0  0  0  0  0  0  0  0  0  0  0
   -2.0229    2.3506   -0.9839 N   0  0  0  0  0  0  0  0  0  0  0  0
   -1.1406    1.5478   -0.3617 C   0  0  0  0  0  0  0  0  0  0  0  0
   -0.1583    1.0274   -1.1801 N   0  0  0  0  0  0  0  0  0  0  0  0
   -0.4528    0.0375   -1.9406 C   0  0  0  0  0  0  0  0  0  0  0  0
   -1.7051   -0.3927   -2.6155 C   0  0  0  0  0  0  0  0  0  0  0  0
   -2.1843   -1.6102   -2.2801 C   0  0  0  0  0  0  0  0  0  0  0  0
   -1.5984   -2.3239   -1.2054 N   0  3  0  0  0  0  0  0  0  0  0  0
   -2.3389   -3.1724   -0.4606 C   0  0  0  0  0  0  0  0  0  0  0  0
   -1.9401   -3.4573    0.8431 C   0  0  0  0  0  0  0  0  0  0  0  0
   -0.8423   -2.7819    1.3871 C   0  0  0  0  0  0  0  0  0  0  0  0
   -0.0624   -1.9235    0.5957 C   0  0  0  0  0  0  0  0  0  0  0  0
   -0.3756   -1.9601   -0.7584 C   0  0  0  0  0  0  0  0  0  0  0  0
    0.4048   -1.1469   -1.6507 C   0  0  0  0  0  0  0  0  0  0  0  0
    1.6822   -1.3036   -1.6208 N   0  0  0  0  0  0  0  0  0  0  0  0
    2.3459   -0.2878   -0.9319 C   0  0  0  0  0  0  0  0  0  0  0  0
    3.3644    0.4641   -1.5437 C   0  0  0  0  0  0  0  0  0  0  0  0
    3.6758    0.2500   -2.9453 N   0  3  0  0  0  0  0  0  0  0  0  0
    4.8664    0.0744   -3.2375 O   0  0  0  0  0  0  0  0  0  0  0  0
    2.7381    0.3051   -3.7563 O   0  5  0  0  0  0  0  0  0  0  0  0
    4.0691    1.4541   -0.8584 C   0  0  0  0  0  0  0  0  0  0  0  0
    3.7301    1.7182    0.4596 C   0  0  0  0  0  0  0  0  0  0  0  0
    2.7013    1.0003    1.0781 C   0  0  0  0  0  0  0  0  0  0  0  0
    1.9822   -0.0321    0.4191 C   0  0  0  0  0  0  0  0  0  0  0  0
    2.2172   -2.2405    2.1173 H   0  0  0  0  0  0  0  0  0  0  0  0
    2.2223   -0.7005    2.9746 H   0  0  0  0  0  0  0  0  0  0  0  0
    0.8966   -1.7842    3.2110 H   0  0  0  0  0  0  0  0  0  0  0  0
   -0.8586   -0.2310    2.4871 H   0  0  0  0  0  0  0  0  0  0  0  0
    0.3600    1.0113    2.4480 H   0  0  0  0  0  0  0  0  0  0  0  0
   -2.1957    1.7562    2.8459 H   0  0  0  0  0  0  0  0  0  0  0  0
   -3.7656    3.3179    1.7552 H   0  0  0  0  0  0  0  0  0  0  0  0
   -2.1770    0.2839   -3.3169 H   0  0  0  0  0  0  0  0  0  0  0  0
   -3.1121   -1.9661   -2.7276 H   0  0  0  0  0  0  0  0  0  0  0  0
   -3.2690   -3.5493   -0.8767 H   0  0  0  0  0  0  0  0  0  0  0  0
   -2.5428   -4.1118    1.4718 H   0  0  0  0  0  0  0  0  0  0  0  0
   -0.6644   -2.9025    2.4559 H   0  0  0  0  0  0  0  0  0  0  0  0
    4.8572    2.0277   -1.3421 H   0  0  0  0  0  0  0  0  0  0  0  0
    4.2568    2.4908    1.0167 H   0  0  0  0  0  0  0  0  0  0  0  0
    2.4830    1.2709    2.1103 H   0  0  0  0  0  0  0  0  0  0  0  0
  2  1  1  0  0  0  0
  3  2  1  0  0  0  0
  4  3  1  0  0  0  0
  5  4  2  0  0  0  0
  6  5  1  0  0  0  0
  7  6  2  0  0  0  0
  8  7  1  0  0  0  0
  9  8  3  0  0  0  0
 10  7  1  0  0  0  0
 11 10  2  0  0  0  0
 11  4  1  0  0  0  0
 12 11  1  0  0  0  0
 13 12  2  0  0  0  0
 14 13  1  0  0  0  0
 15 14  2  0  0  0  0
 16 15  1  0  0  0  0
 17 16  1  0  0  0  0
 18 17  2  0  0  0  0
 19 18  1  0  0  0  0
 20 19  2  0  0  0  0
 20  2  1  0  0  0  0
 21 20  1  0  0  0  0
 21 16  2  0  0  0  0
 22 21  1  0  0  0  0
 22 13  1  0  0  0  0
 23 22  2  0  0  0  0
 24 23  1  0  0  0  0
 25 24  2  0  0  0  0
 26 25  1  0  0  0  0
 27 26  2  0  0  0  0
 28 26  1  0  0  0  0
 29 25  1  0  0  0  0
 30 29  2  0  0  0  0
 31 30  1  0  0  0  0
 32 31  2  0  0  0  0
 32 24  1  0  0  0  0
 32  2  1  0  0  0  0
  1 33  1  0  0  0  0
  1 34  1  0  0  0  0
  1 35  1  0  0  0  0
  3 36  1  0  0  0  0
  3 37  1  0  0  0  0
  5 38  1  0  0  0  0
  6 39  1  0  0  0  0
 14 40  1  0  0  0  0
 15 41  1  0  0  0  0
 17 42  1  0  0  0  0
 18 43  1  0  0  0  0
 19 44  1  0  0  0  0
 29 45  1  0  0  0  0
 30 46  1  0  0  0  0
 31 47  1  0  0  0  0
M  CHG  3  16   1  26   1  28  -1
M  END
>  <energy>
277.83913443538745

$$$$
