CCCCN1C(C)C(=O)C23OC4(CCC(C)(C)C42)CC3C2(O)C(O)CC(C)C(O)C12
                    3D

 69 73  0  0  0  0  0  0  0  0999 V2000
    4.2882   -2.7458    2.5794 C   0  0  0  0  0  0  0  0  0  0  0  0
    4.2650   -2.0799    1.2141 C   0  0  0  0  0  0  0  0  0  0  0  0
    2.9048   -2.2489    0.5289 C   0  0  0  0  0  0  0  0  0  0  0  0
    2.8350   -1.4349   -0.7676 C   0  0  0  0  0  0  0  0  0  0  0  0
    1.5623   -0.7824   -1.0826 N   0  0  0  0  0  0  0  0  0  0  0  0
    0.3740   -1.6029   -1.3291 C   0  0  0  0  0  0  0  0  0  0  0  0
    0.6488   -2.8440   -2.1862 C   0  0  0  0  0  0  0  0  0  0  0  0
   -0.3234   -1.9741   -0.0248 C   0  0  0  0  0  0  0  0  0  0  0  0
   -0.2259   -3.1134    0.4460 O   0  0  0  0  0  0  0  0  0  0  0  0
   -1.1186   -0.8297    0.6422 C   0  0  0  0  0  0  0  0  0  0  0  0
   -2.2056   -1.3222    1.5809 O   0  0  0  0  0  0  0  0  0  0  0  0
   -2.6427    0.0832    1.4385 C   0  0  0  0  0  0  0  0  0  0  0  0
   -4.1161    0.2850    1.5758 C   0  0  0  0  0  0  0  0  0  0  0  0
   -4.6534   -0.5963    0.4430 C   0  0  0  0  0  0  0  0  0  0  0  0
   -3.6269   -0.4591   -0.7124 C   0  0  0  0  0  0  0  0  0  0  0  0
   -3.4415   -1.7651   -1.4813 C   0  0  0  0  0  0  0  0  0  0  0  0
   -4.0948    0.6420   -1.6820 C   0  0  0  0  0  0  0  0  0  0  0  0
   -2.2958   -0.0219   -0.0571 C   0  0  0  0  0  0  0  0  0  0  0  0
   -1.5719    0.9468    2.0638 C   0  0  0  0  0  0  0  0  0  0  0  0
   -0.3355    0.1574    1.5312 C   0  0  0  0  0  0  0  0  0  0  0  0
    0.9016    0.8936    0.9153 C   0  0  0  0  0  0  0  0  0  0  0  0
    2.0056    0.4147    1.7701 O   0  0  0  0  0  0  0  0  0  0  0  0
    0.9818    2.4370    1.1498 C   0  0  0  0  0  0  0  0  0  0  0  0
    0.5093    2.7882    2.4524 O   0  0  0  0  0  0  0  0  0  0  0  0
    0.2983    3.2698    0.0729 C   0  0  0  0  0  0  0  0  0  0  0  0
    0.9031    3.0329   -1.3137 C   0  0  0  0  0  0  0  0  0  0  0  0
    2.3225    3.5993   -1.4295 C   0  0  0  0  0  0  0  0  0  0  0  0
    0.8514    1.5432   -1.6820 C   0  0  0  0  0  0  0  0  0  0  0  0
   -0.4971    1.2429   -2.0164 O   0  0  0  0  0  0  0  0  0  0  0  0
    1.4127    0.5994   -0.5646 C   0  0  0  0  0  0  0  0  0  0  0  0
    3.4963   -2.3452    3.2205 H   0  0  0  0  0  0  0  0  0  0  0  0
    5.2456   -2.5604    3.0760 H   0  0  0  0  0  0  0  0  0  0  0  0
    4.1482   -3.8267    2.4924 H   0  0  0  0  0  0  0  0  0  0  0  0
    4.4846   -1.0138    1.3482 H   0  0  0  0  0  0  0  0  0  0  0  0
    5.0602   -2.4956    0.5843 H   0  0  0  0  0  0  0  0  0  0  0  0
    2.7385   -3.3084    0.3062 H   0  0  0  0  0  0  0  0  0  0  0  0
    2.1174   -1.9551    1.2267 H   0  0  0  0  0  0  0  0  0  0  0  0
    3.1062   -2.0927   -1.6051 H   0  0  0  0  0  0  0  0  0  0  0  0
    3.6389   -0.6870   -0.7862 H   0  0  0  0  0  0  0  0  0  0  0  0
   -0.3531   -1.0397   -1.9148 H   0  0  0  0  0  0  0  0  0  0  0  0
    1.2939   -3.5660   -1.6760 H   0  0  0  0  0  0  0  0  0  0  0  0
   -0.2862   -3.3674   -2.4232 H   0  0  0  0  0  0  0  0  0  0  0  0
    1.1221   -2.5622   -3.1321 H   0  0  0  0  0  0  0  0  0  0  0  0
   -4.3960    1.3337    1.4152 H   0  0  0  0  0  0  0  0  0  0  0  0
   -4.5035   -0.0239    2.5525 H   0  0  0  0  0  0  0  0  0  0  0  0
   -4.7088   -1.6355    0.7894 H   0  0  0  0  0  0  0  0  0  0  0  0
   -5.6703   -0.3092    0.1575 H   0  0  0  0  0  0  0  0  0  0  0  0
   -2.6711   -1.6586   -2.2532 H   0  0  0  0  0  0  0  0  0  0  0  0
   -3.1292   -2.5799   -0.8194 H   0  0  0  0  0  0  0  0  0  0  0  0
   -4.3705   -2.0713   -1.9754 H   0  0  0  0  0  0  0  0  0  0  0  0
   -5.0359    0.3645   -2.1702 H   0  0  0  0  0  0  0  0  0  0  0  0
   -4.2542    1.5928   -1.1595 H   0  0  0  0  0  0  0  0  0  0  0  0
   -3.3494    0.8216   -2.4648 H   0  0  0  0  0  0  0  0  0  0  0  0
   -1.9940    0.9531   -0.4476 H   0  0  0  0  0  0  0  0  0  0  0  0
   -1.6100    0.9286    3.1581 H   0  0  0  0  0  0  0  0  0  0  0  0
   -1.6523    1.9757    1.7105 H   0  0  0  0  0  0  0  0  0  0  0  0
    0.0223   -0.4367    2.3873 H   0  0  0  0  0  0  0  0  0  0  0  0
    1.8357    0.7797    2.6618 H   0  0  0  0  0  0  0  0  0  0  0  0
    2.0441    2.7197    1.1783 H   0  0  0  0  0  0  0  0  0  0  0  0
    0.5695    3.7563    2.5341 H   0  0  0  0  0  0  0  0  0  0  0  0
   -0.7745    3.0550    0.0470 H   0  0  0  0  0  0  0  0  0  0  0  0
    0.3671    4.3319    0.3330 H   0  0  0  0  0  0  0  0  0  0  0  0
    0.2839    3.5857   -2.0304 H   0  0  0  0  0  0  0  0  0  0  0  0
    3.0256    3.1144   -0.7487 H   0  0  0  0  0  0  0  0  0  0  0  0
    2.3241    4.6716   -1.2032 H   0  0  0  0  0  0  0  0  0  0  0  0
    2.7045    3.4660   -2.4476 H   0  0  0  0  0  0  0  0  0  0  0  0
    1.4384    1.3751   -2.5945 H   0  0  0  0  0  0  0  0  0  0  0  0
   -0.6787    1.6467   -2.8868 H   0  0  0  0  0  0  0  0  0  0  0  0
    2.4551    0.9485   -0.5155 H   0  0  0  0  0  0  0  0  0  0  0  0
  2  1  1  0  0  0  0
  3  2  1  0  0  0  0
  4  3  1  0  0  0  0
  5  4  1  0  0  0  0
  6  5  1  0  0  0  0
  7  6  1  0  0  0  0
  8  6  1  0  0  0  0
  9  8  2  0  0  0  0
 10  8  1  0  0  0  0
 11 10  1  0  0  0  0
 12 11  1  0  0  0  0
 13 12  1  0  0  0  0
 14 13  1  0  0  0  0
 15 14  1  0  0  0  0
 16 15  1  0  0  0  0
 17 15  1  0  0  0  0
 18 15  1  0  0  0  0
 18 12  1  0  0  0  0
 18 10  1  0  0  0  0
 19 12  1  0  0  0  0
 20 19  1  0  0  0  0
 20 10  1  0  0  0  0
 21 20  1  0  0  0  0
 22 21  1  0  0  0  0
 23 21  1  0  0  0  0
 24 23  1  0  0  0  0
 25 23  1  0  0  0  0
 26 25  1  0  0  0  0
 27 26  1  0  0  0  0
 28 26  1  0  0  0  0
 29 28  1  0  0  0  0
 30 28  1  0  0  0  0
 30  5  1  0  0  0  0
 30 21  1  0  0  0  0
  1 31  1  0  0  0  0
  1 32  1  0  0  0  0
  1 33  1  0  0  0  0
  2 34  1  0  0  0  0
  2 35  1  0  0  0  0
  3 36  1  0  0  0  0
  3 37  1  0  0  0  0
  4 38  1  0  0  0  0
  4 39  1  0  0  0  0
  6 40  1  0  0  0  0
  7 41  1  0  0  0  0
  7 42  1  0  0  0  0
  7 43  1  0  0  0  0
 13 44  1  0  0  0  0
 13 45  1  0  0  0  0
 14 46  1  0  0  0  0
 14 47  1  0  0  0  0
 16 48  1  0  0  0  0
 16 49  1  0  0  0  0
 16 50  1  0  0  0  0
 17 51  1  0  0  0  0
 17 52  1  0  0  0  0
 17 53  1  0  0  0  0
 18 54  1  0  0  0  0
 19 55  1  0  0  0  0
 19 56  1  0  0  0  0
 20 57  1  0  0  0  0
 22 58  1  0  0  0  0
 23 59  1  0  0  0  0
 24 60  1  0  0  0  0
 25 61  1  0  0  0  0
 25 62  1  0  0  0  0
 26 63  1  0  0  0  0
 27 64  1  0  0  0  0
 27 65  1  0  0  0  0
 27 66  1  0  0  0  0
 28 67  1  0  0  0  0
 29 68  1  0  0  0  0
 30 69  1  0  0  0  0
M  END
>  <energy>
221.2901305652619

$$$$
