CC(C)CC1OC(=O)CC23C4CC5C6CCC6NC(CCC12O)C(C)C(O)C4CC53
                    3D

 69 74  0  0  0  0  0  0  0  0999 V2000
   -4.3283    0.6678    2.2869 C   0  0  0  0  0  0  0  0  0  0  0  0
   -4.4323    0.9410    0.7885 C   0  0  0  0  0  0  0  0  0  0  0  0
   -4.3589   -0.3492   -0.0241 C   0  0  0  0  0  0  0  0  0  0  0  0
   -3.4975    2.0613    0.2955 C   0  0  0  0  0  0  0  0  0  0  0  0
   -2.0108    2.1468    0.7329 C   0  0  0  0  0  0  0  0  0  0  0  0
   -1.6395    3.4820    0.3720 O   0  0  0  0  0  0  0  0  0  0  0  0
   -0.4166    3.8040    0.8248 C   0  0  0  0  0  0  0  0  0  0  0  0
   -0.1944    4.7214    1.5997 O   0  0  0  0  0  0  0  0  0  0  0  0
    0.6173    2.9718    0.1512 C   0  0  0  0  0  0  0  0  0  0  0  0
    0.5420    1.4542    0.5250 C   0  0  0  0  0  0  0  0  0  0  0  0
    1.5096    0.6282   -0.3319 C   0  0  0  0  0  0  0  0  0  0  0  0
    2.1995   -0.6263    0.4508 C   0  0  0  0  0  0  0  0  0  0  0  0
    1.5880   -0.5177    1.7761 C   0  0  0  0  0  0  0  0  0  0  0  0
    0.5188   -1.6238    1.7243 C   0  0  0  0  0  0  0  0  0  0  0  0
    1.1252   -3.0350    2.0311 C   0  0  0  0  0  0  0  0  0  0  0  0
   -0.0164   -3.6720    1.2229 C   0  0  0  0  0  0  0  0  0  0  0  0
   -0.1597   -2.3532    0.4044 C   0  0  0  0  0  0  0  0  0  0  0  0
    0.6996   -2.5198   -0.8043 N   0  0  0  0  0  0  0  0  0  0  0  0
    0.6511   -1.4689   -1.8767 C   0  0  0  0  0  0  0  0  0  0  0  0
   -0.7167   -0.6494   -1.9787 C   0  0  0  0  0  0  0  0  0  0  0  0
   -1.1616    0.6926   -1.2838 C   0  0  0  0  0  0  0  0  0  0  0  0
   -0.9771    1.0279    0.2503 C   0  0  0  0  0  0  0  0  0  0  0  0
   -1.3730   -0.0800    1.0140 O   0  0  0  0  0  0  0  0  0  0  0  0
    2.1482   -0.7773   -2.4714 C   0  0  0  0  0  0  0  0  0  0  0  0
    2.9744   -1.9451   -3.0521 C   0  0  0  0  0  0  0  0  0  0  0  0
    3.2982    0.2452   -1.6477 C   0  0  0  0  0  0  0  0  0  0  0  0
    3.9645    1.0025   -2.6765 O   0  0  0  0  0  0  0  0  0  0  0  0
    2.7658    1.3505   -0.5934 C   0  0  0  0  0  0  0  0  0  0  0  0
    2.9501    1.6104    1.0210 C   0  0  0  0  0  0  0  0  0  0  0  0
    1.4346    1.0550    1.7038 C   0  0  0  0  0  0  0  0  0  0  0  0
   -3.3956    0.1662    2.5542 H   0  0  0  0  0  0  0  0  0  0  0  0
   -4.3942    1.5990    2.8593 H   0  0  0  0  0  0  0  0  0  0  0  0
   -5.1503    0.0203    2.6115 H   0  0  0  0  0  0  0  0  0  0  0  0
   -5.4506    1.3241    0.6216 H   0  0  0  0  0  0  0  0  0  0  0  0
   -3.4391   -0.9080    0.1504 H   0  0  0  0  0  0  0  0  0  0  0  0
   -5.1911   -1.0100    0.2430 H   0  0  0  0  0  0  0  0  0  0  0  0
   -4.4400   -0.1433   -1.0966 H   0  0  0  0  0  0  0  0  0  0  0  0
   -3.5753    2.1615   -0.7952 H   0  0  0  0  0  0  0  0  0  0  0  0
   -3.9622    2.9965    0.6505 H   0  0  0  0  0  0  0  0  0  0  0  0
   -2.0227    2.1324    1.8337 H   0  0  0  0  0  0  0  0  0  0  0  0
    0.4821    3.1124   -0.9305 H   0  0  0  0  0  0  0  0  0  0  0  0
    1.5535    3.4792    0.3779 H   0  0  0  0  0  0  0  0  0  0  0  0
    1.0568    0.5527   -1.2887 H   0  0  0  0  0  0  0  0  0  0  0  0
    3.2842   -0.5443    0.6349 H   0  0  0  0  0  0  0  0  0  0  0  0
    2.2966   -1.5855   -0.0218 H   0  0  0  0  0  0  0  0  0  0  0  0
    2.2963   -0.7404    2.5826 H   0  0  0  0  0  0  0  0  0  0  0  0
   -0.2141   -1.4249    2.5214 H   0  0  0  0  0  0  0  0  0  0  0  0
    1.1592   -3.3084    3.0896 H   0  0  0  0  0  0  0  0  0  0  0  0
    2.1163   -3.2263    1.6035 H   0  0  0  0  0  0  0  0  0  0  0  0
   -0.8969   -3.8906    1.8412 H   0  0  0  0  0  0  0  0  0  0  0  0
    0.2406   -4.5883    0.6814 H   0  0  0  0  0  0  0  0  0  0  0  0
   -1.2143   -2.1812    0.1881 H   0  0  0  0  0  0  0  0  0  0  0  0
    0.6016   -3.4359   -1.2452 H   0  0  0  0  0  0  0  0  0  0  0  0
    0.4690   -2.1322   -2.7409 H   0  0  0  0  0  0  0  0  0  0  0  0
   -0.8324   -0.4413   -3.0544 H   0  0  0  0  0  0  0  0  0  0  0  0
   -1.5249   -1.3685   -1.7818 H   0  0  0  0  0  0  0  0  0  0  0  0
   -0.7615    1.5258   -1.8771 H   0  0  0  0  0  0  0  0  0  0  0  0
   -2.2312    0.7232   -1.5037 H   0  0  0  0  0  0  0  0  0  0  0  0
   -1.2902    0.1512    1.9568 H   0  0  0  0  0  0  0  0  0  0  0  0
    1.8212   -0.1717   -3.3312 H   0  0  0  0  0  0  0  0  0  0  0  0
    3.3352   -2.6024   -2.2552 H   0  0  0  0  0  0  0  0  0  0  0  0
    2.3775   -2.5446   -3.7473 H   0  0  0  0  0  0  0  0  0  0  0  0
    3.8398   -1.5806   -3.6122 H   0  0  0  0  0  0  0  0  0  0  0  0
    4.0858   -0.3785   -1.2070 H   0  0  0  0  0  0  0  0  0  0  0  0
    4.4858    0.3771   -3.2069 H   0  0  0  0  0  0  0  0  0  0  0  0
    2.6730    2.3126   -1.1083 H   0  0  0  0  0  0  0  0  0  0  0  0
    3.0761    2.6759    1.2331 H   0  0  0  0  0  0  0  0  0  0  0  0
    3.8185    1.1182    1.4749 H   0  0  0  0  0  0  0  0  0  0  0  0
    1.2134    1.5335    2.6600 H   0  0  0  0  0  0  0  0  0  0  0  0
  2  1  1  0  0  0  0
  3  2  1  0  0  0  0
  4  2  1  0  0  0  0
  5  4  1  0  0  0  0
  6  5  1  0  0  0  0
  7  6  1  0  0  0  0
  8  7  2  0  0  0  0
  9  7  1  0  0  0  0
 10  9  1  0  0  0  0
 11 10  1  0  0  0  0
 12 11  1  0  0  0  0
 13 12  1  0  0  0  0
 14 13  1  0  0  0  0
 15 14  1  0  0  0  0
 16 15  1  0  0  0  0
 17 16  1  0  0  0  0
 17 14  1  0  0  0  0
 18 17  1  0  0  0  0
 19 18  1  0  0  0  0
 20 19  1  0  0  0  0
 21 20  1  0  0  0  0
 22 21  1  0  0  0  0
 22  5  1  0  0  0  0
 22 10  1  0  0  0  0
 23 22  1  0  0  0  0
 24 19  1  0  0  0  0
 25 24  1  0  0  0  0
 26 24  1  0  0  0  0
 27 26  1  0  0  0  0
 28 26  1  0  0  0  0
 28 11  1  0  0  0  0
 29 28  1  0  0  0  0
 30 29  1  0  0  0  0
 30 13  1  0  0  0  0
 30 10  1  0  0  0  0
  1 31  1  0  0  0  0
  1 32  1  0  0  0  0
  1 33  1  0  0  0  0
  2 34  1  0  0  0  0
  3 35  1  0  0  0  0
  3 36  1  0  0  0  0
  3 37  1  0  0  0  0
  4 38  1  0  0  0  0
  4 39  1  0  0  0  0
  5 40  1  0  0  0  0
  9 41  1  0  0  0  0
  9 42  1  0  0  0  0
 11 43  1  0  0  0  0
 12 44  1  0  0  0  0
 12 45  1  0  0  0  0
 13 46  1  0  0  0  0
 14 47  1  0  0  0  0
 15 48  1  0  0  0  0
 15 49  1  0  0  0  0
 16 50  1  0  0  0  0
 16 51  1  0  0  0  0
 17 52  1  0  0  0  0
 18 53  1  0  0  0  0
 19 54  1  0  0  0  0
 20 55  1  0  0  0  0
 20 56  1  0  0  0  0
 21 57  1  0  0  0  0
 21 58  1  0  0  0  0
 23 59  1  0  0  0  0
 24 60  1  0  0  0  0
 25 61  1  0  0  0  0
 25 62  1  0  0  0  0
 25 63  1  0  0  0  0
 26 64  1  0  0  0  0
 27 65  1  0  0  0  0
 28 66  1  0  0  0  0
 29 67  1  0  0  0  0
 29 68  1  0  0  0  0
 30 69  1  0  0  0  0
M  END
>  <energy>
378.76521833920032

$$$$
