CC12CCC(C1)SC1(C2)C2=NNc3[nH]cnc3N1OC2
                    3D

 37 41  0  0  0  0  0  0  0  0999 V2000
   -2.3461   -1.7275   -1.2007 C   0  0  0  0  0  0  0  0  0  0  0  0
   -1.8365   -0.5691   -0.3375 C   0  0  0  0  0  0  0  0  0  0  0  0
   -1.6574   -0.9986    1.1313 C   0  0  0  0  0  0  0  0  0  0  0  0
   -1.9324    0.2603    1.9655 C   0  0  0  0  0  0  0  0  0  0  0  0
   -2.3748    1.3312    0.9662 C   0  0  0  0  0  0  0  0  0  0  0  0
   -2.8904    0.5347   -0.2206 C   0  0  0  0  0  0  0  0  0  0  0  0
   -1.0098    2.3897    0.3910 S   0  0  0  0  0  0  0  0  0  0  0  0
    0.2289    1.0982   -0.1699 C   0  0  0  0  0  0  0  0  0  0  0  0
   -0.5249   -0.0025   -0.9534 C   0  0  0  0  0  0  0  0  0  0  0  0
    1.3556    1.8372   -0.8849 C   0  0  0  0  0  0  0  0  0  0  0  0
    2.0818    1.4119   -1.8862 N   0  0  0  0  0  0  0  0  0  0  0  0
    2.3939    0.0618   -1.8233 N   0  0  0  0  0  0  0  0  0  0  0  0
    2.5202   -0.5924   -0.6224 C   0  0  0  0  0  0  0  0  0  0  0  0
    3.2779   -1.7176   -0.4565 N   0  0  0  0  0  0  0  0  0  0  0  0
    3.1847   -2.0852    0.8602 C   0  0  0  0  0  0  0  0  0  0  0  0
    2.4010   -1.2810    1.5445 N   0  0  0  0  0  0  0  0  0  0  0  0
    1.9715   -0.3579    0.6367 C   0  0  0  0  0  0  0  0  0  0  0  0
    1.1056    0.6707    0.9514 N   0  0  0  0  0  0  0  0  0  0  0  0
    1.8356    1.8768    1.3534 O   0  0  0  0  0  0  0  0  0  0  0  0
    2.0420    2.6969    0.1460 C   0  0  0  0  0  0  0  0  0  0  0  0
   -1.6248   -2.5519   -1.2181 H   0  0  0  0  0  0  0  0  0  0  0  0
   -3.2931   -2.1251   -0.8190 H   0  0  0  0  0  0  0  0  0  0  0  0
   -2.5160   -1.4039   -2.2335 H   0  0  0  0  0  0  0  0  0  0  0  0
   -0.6718   -1.4259    1.3350 H   0  0  0  0  0  0  0  0  0  0  0  0
   -2.3911   -1.7675    1.4056 H   0  0  0  0  0  0  0  0  0  0  0  0
   -2.7545    0.0450    2.6597 H   0  0  0  0  0  0  0  0  0  0  0  0
   -1.0777    0.5554    2.5819 H   0  0  0  0  0  0  0  0  0  0  0  0
   -3.1478    1.9801    1.3880 H   0  0  0  0  0  0  0  0  0  0  0  0
   -3.0086    1.1227   -1.1380 H   0  0  0  0  0  0  0  0  0  0  0  0
   -3.8736    0.1088    0.0203 H   0  0  0  0  0  0  0  0  0  0  0  0
   -0.7630    0.3996   -1.9498 H   0  0  0  0  0  0  0  0  0  0  0  0
    0.1085   -0.8691   -1.1573 H   0  0  0  0  0  0  0  0  0  0  0  0
    2.9706   -0.2452   -2.6102 H   0  0  0  0  0  0  0  0  0  0  0  0
    3.8284   -2.1835   -1.1617 H   0  0  0  0  0  0  0  0  0  0  0  0
    3.7091   -2.9434    1.2590 H   0  0  0  0  0  0  0  0  0  0  0  0
    1.5645    3.6687    0.2797 H   0  0  0  0  0  0  0  0  0  0  0  0
    3.1147    2.7976   -0.0326 H   0  0  0  0  0  0  0  0  0  0  0  0
  2  1  1  0  0  0  0
  3  2  1  0  0  0  0
  4  3  1  0  0  0  0
  5  4  1  0  0  0  0
  6  5  1  0  0  0  0
  6  2  1  0  0  0  0
  7  5  1  0  0  0  0
  8  7  1  0  0  0  0
  9  8  1  0  0  0  0
  9  2  1  0  0  0  0
 10  8  1  0  0  0  0
 11 10  2  0  0  0  0
 12 11  1  0  0  0  0
 13 12  1  0  0  0  0
 14 13  1  0  0  0  0
 15 14  1  0  0  0  0
 16 15  2  0  0  0  0
 17 16  1  0  0  0  0
 17 13  2  0  0  0  0
 18 17  1  0  0  0  0
 18  8  1  0  0  0  0
 19 18  1  0  0  0  0
 20 19  1  0  0  0  0
 20 10  1  0  0  0  0
  1 21  1  0  0  0  0
  1 22  1  0  0  0  0
  1 23  1  0  0  0  0
  3 24  1  0  0  0  0
  3 25  1  0  0  0  0
  4 26  1  0  0  0  0
  4 27  1  0  0  0  0
  5 28  1  0  0  0  0
  6 29  1  0  0  0  0
  6 30  1  0  0  0  0
  9 31  1  0  0  0  0
  9 32  1  0  0  0  0
 12 33  1  0  0  0  0
 14 34  1  0  0  0  0
 15 35  1  0  0  0  0
 20 36  1  0  0  0  0
 20 37  1  0  0  0  0
M  END
>  <energy>
151.46422999585059

$$$$
