CCOC(=O)c1c2c3n(c1O)CCC1(CN(CCCF)C3(C)C)SC(=NC(=O)OC(C)C)NC1=C2
                    3D

 68 71  0  0  0  0  0  0  0  0999 V2000
    1.3146    5.3376    1.3437 C   0  0  0  0  0  0  0  0  0  0  0  0
    0.4118    5.5410    0.1400 C   0  0  0  0  0  0  0  0  0  0  0  0
   -0.3291    4.3300   -0.0490 O   0  0  0  0  0  0  0  0  0  0  0  0
   -1.1155    4.2919   -1.1706 C   0  0  0  0  0  0  0  0  0  0  0  0
   -1.3319    5.2757   -1.8685 O   0  0  0  0  0  0  0  0  0  0  0  0
   -1.5849    2.9398   -1.4635 C   0  0  0  0  0  0  0  0  0  0  0  0
   -1.3580    1.7147   -0.7512 C   0  0  0  0  0  0  0  0  0  0  0  0
   -2.1163    0.7129   -1.3449 C   0  0  0  0  0  0  0  0  0  0  0  0
   -2.0500    1.1315   -2.6576 N   0  0  0  0  0  0  0  0  0  0  0  0
   -2.1969    2.5172   -2.6402 C   0  0  0  0  0  0  0  0  0  0  0  0
   -2.6085    3.1811   -3.7126 O   0  0  0  0  0  0  0  0  0  0  0  0
   -1.0895    0.4886   -3.5592 C   0  0  0  0  0  0  0  0  0  0  0  0
    0.3520    0.3947   -2.9900 C   0  0  0  0  0  0  0  0  0  0  0  0
    0.5983   -0.3415   -1.6230 C   0  0  0  0  0  0  0  0  0  0  0  0
   -0.3113   -1.6006   -1.4171 C   0  0  0  0  0  0  0  0  0  0  0  0
   -1.4465   -1.5183   -0.4535 N   0  0  0  0  0  0  0  0  0  0  0  0
   -1.7631   -2.8981   -0.0036 C   0  0  0  0  0  0  0  0  0  0  0  0
   -2.4648   -3.0059    1.3447 C   0  0  0  0  0  0  0  0  0  0  0  0
   -2.2354   -4.3645    1.9806 C   0  0  0  0  0  0  0  0  0  0  0  0
   -3.0029   -4.4537    3.0956 F   0  0  0  0  0  0  0  0  0  0  0  0
   -2.5898   -0.6534   -0.8692 C   0  0  0  0  0  0  0  0  0  0  0  0
   -3.5064   -1.3353   -1.9188 C   0  0  0  0  0  0  0  0  0  0  0  0
   -3.5036   -0.2999    0.3394 C   0  0  0  0  0  0  0  0  0  0  0  0
    2.3928   -1.0456   -1.7611 S   0  0  0  0  0  0  0  0  0  0  0  0
    2.9190   -0.3110   -0.2494 C   0  0  0  0  0  0  0  0  0  0  0  0
    4.1142   -0.5479    0.1545 N   0  0  0  0  0  0  0  0  0  0  0  0
    4.4714    0.1663    1.2526 C   0  0  0  0  0  0  0  0  0  0  0  0
    4.8163    1.3423    1.1986 O   0  0  0  0  0  0  0  0  0  0  0  0
    4.2989   -0.4648    2.4480 O   0  0  0  0  0  0  0  0  0  0  0  0
    4.2242   -1.9051    2.5570 C   0  0  0  0  0  0  0  0  0  0  0  0
    2.8012   -2.3323    2.9262 C   0  0  0  0  0  0  0  0  0  0  0  0
    5.1867   -2.2827    3.6832 C   0  0  0  0  0  0  0  0  0  0  0  0
    1.9235    0.4491    0.2858 N   0  0  0  0  0  0  0  0  0  0  0  0
    0.7093    0.5681   -0.3512 C   0  0  0  0  0  0  0  0  0  0  0  0
   -0.2431    1.4258    0.0742 C   0  0  0  0  0  0  0  0  0  0  0  0
    2.0625    4.5604    1.1410 H   0  0  0  0  0  0  0  0  0  0  0  0
    0.7369    4.9922    2.2078 H   0  0  0  0  0  0  0  0  0  0  0  0
    1.8310    6.2641    1.6092 H   0  0  0  0  0  0  0  0  0  0  0  0
    1.0231    5.7438   -0.7487 H   0  0  0  0  0  0  0  0  0  0  0  0
   -0.2703    6.3808    0.3172 H   0  0  0  0  0  0  0  0  0  0  0  0
   -3.0681    2.5682   -4.3060 H   0  0  0  0  0  0  0  0  0  0  0  0
   -1.4955   -0.4878   -3.8333 H   0  0  0  0  0  0  0  0  0  0  0  0
   -1.0763    1.0884   -4.4783 H   0  0  0  0  0  0  0  0  0  0  0  0
    0.7569    1.4105   -2.9073 H   0  0  0  0  0  0  0  0  0  0  0  0
    0.9330   -0.0925   -3.7831 H   0  0  0  0  0  0  0  0  0  0  0  0
    0.3499   -2.3869   -1.0321 H   0  0  0  0  0  0  0  0  0  0  0  0
   -0.6545   -2.0055   -2.3776 H   0  0  0  0  0  0  0  0  0  0  0  0
   -0.8187   -3.4425    0.1355 H   0  0  0  0  0  0  0  0  0  0  0  0
   -2.3051   -3.4608   -0.7741 H   0  0  0  0  0  0  0  0  0  0  0  0
   -3.5432   -2.8789    1.2398 H   0  0  0  0  0  0  0  0  0  0  0  0
   -2.1022   -2.2344    2.0336 H   0  0  0  0  0  0  0  0  0  0  0  0
   -1.1921   -4.4917    2.2806 H   0  0  0  0  0  0  0  0  0  0  0  0
   -2.5228   -5.1739    1.3067 H   0  0  0  0  0  0  0  0  0  0  0  0
   -2.9528   -1.7031   -2.7880 H   0  0  0  0  0  0  0  0  0  0  0  0
   -4.2724   -0.6421   -2.2866 H   0  0  0  0  0  0  0  0  0  0  0  0
   -4.0408   -2.1945   -1.4960 H   0  0  0  0  0  0  0  0  0  0  0  0
   -2.9139   -0.0071    1.2158 H   0  0  0  0  0  0  0  0  0  0  0  0
   -4.1770   -1.1087    0.6231 H   0  0  0  0  0  0  0  0  0  0  0  0
   -4.1650    0.5461    0.1057 H   0  0  0  0  0  0  0  0  0  0  0  0
    4.5388   -2.3984    1.6330 H   0  0  0  0  0  0  0  0  0  0  0  0
    2.7473   -3.4085    3.1196 H   0  0  0  0  0  0  0  0  0  0  0  0
    2.4472   -1.8051    3.8198 H   0  0  0  0  0  0  0  0  0  0  0  0
    2.0950   -2.1044    2.1204 H   0  0  0  0  0  0  0  0  0  0  0  0
    5.2480   -3.3674    3.8243 H   0  0  0  0  0  0  0  0  0  0  0  0
    4.8754   -1.8244    4.6330 H   0  0  0  0  0  0  0  0  0  0  0  0
    6.1943   -1.9080    3.4647 H   0  0  0  0  0  0  0  0  0  0  0  0
    2.1169    1.0788    1.0576 H   0  0  0  0  0  0  0  0  0  0  0  0
   -0.0725    2.0459    0.9526 H   0  0  0  0  0  0  0  0  0  0  0  0
  2  1  1  0  0  0  0
  3  2  1  0  0  0  0
  4  3  1  0  0  0  0
  5  4  2  0  0  0  0
  6  4  1  0  0  0  0
  7  6  1  0  0  0  0
  8  7  2  0  0  0  0
  9  8  1  0  0  0  0
 10  9  1  0  0  0  0
 10  6  2  0  0  0  0
 11 10  1  0  0  0  0
 12  9  1  0  0  0  0
 13 12  1  0  0  0  0
 14 13  1  0  0  0  0
 15 14  1  0  0  0  0
 16 15  1  0  0  0  0
 17 16  1  0  0  0  0
 18 17  1  0  0  0  0
 19 18  1  0  0  0  0
 20 19  1  0  0  0  0
 21 16  1  0  0  0  0
 21  8  1  0  0  0  0
 22 21  1  0  0  0  0
 23 21  1  0  0  0  0
 24 14  1  0  0  0  0
 25 24  1  0  0  0  0
 26 25  2  0  0  0  0
 27 26  1  0  0  0  0
 28 27  2  0  0  0  0
 29 27  1  0  0  0  0
 30 29  1  0  0  0  0
 31 30  1  0  0  0  0
 32 30  1  0  0  0  0
 33 25  1  0  0  0  0
 34 33  1  0  0  0  0
 34 14  1  0  0  0  0
 35 34  2  0  0  0  0
 35  7  1  0  0  0  0
  1 36  1  0  0  0  0
  1 37  1  0  0  0  0
  1 38  1  0  0  0  0
  2 39  1  0  0  0  0
  2 40  1  0  0  0  0
 11 41  1  0  0  0  0
 12 42  1  0  0  0  0
 12 43  1  0  0  0  0
 13 44  1  0  0  0  0
 13 45  1  0  0  0  0
 15 46  1  0  0  0  0
 15 47  1  0  0  0  0
 17 48  1  0  0  0  0
 17 49  1  0  0  0  0
 18 50  1  0  0  0  0
 18 51  1  0  0  0  0
 19 52  1  0  0  0  0
 19 53  1  0  0  0  0
 22 54  1  0  0  0  0
 22 55  1  0  0  0  0
 22 56  1  0  0  0  0
 23 57  1  0  0  0  0
 23 58  1  0  0  0  0
 23 59  1  0  0  0  0
 30 60  1  0  0  0  0
 31 61  1  0  0  0  0
 31 62  1  0  0  0  0
 31 63  1  0  0  0  0
 32 64  1  0  0  0  0
 32 65  1  0  0  0  0
 32 66  1  0  0  0  0
 33 67  1  0  0  0  0
 35 68  1  0  0  0  0
M  END
>  <energy>
52.402101111241251

$$$$
