C=C(F)CN1CCC23c4c(O)ccc5c4C14CCN(CCC1CCN(CCO)CC1)C1CCC2(O)C13C4C5
                    3D

 80 87  0  0  0  0  0  0  0  0999 V2000
    3.8226    2.1034   -4.0882 C   0  0  0  0  0  0  0  0  0  0  0  0
    4.2913    1.5431   -2.9666 C   0  0  0  0  0  0  0  0  0  0  0  0
    5.4482    0.8473   -3.0582 F   0  0  0  0  0  0  0  0  0  0  0  0
    3.6606    1.7119   -1.6050 C   0  0  0  0  0  0  0  0  0  0  0  0
    2.9349    0.4968   -1.1278 N   0  0  0  0  0  0  0  0  0  0  0  0
    3.9380   -0.4992   -0.6979 C   0  0  0  0  0  0  0  0  0  0  0  0
    3.4637   -1.6439    0.1883 C   0  0  0  0  0  0  0  0  0  0  0  0
    2.5473   -1.1129    1.2414 C   0  0  0  0  0  0  0  0  0  0  0  0
    2.9872    0.3270    1.7658 C   0  0  0  0  0  0  0  0  0  0  0  0
    3.5112    0.6031    3.0287 C   0  0  0  0  0  0  0  0  0  0  0  0
    4.2466   -0.3460    3.6747 O   0  0  0  0  0  0  0  0  0  0  0  0
    3.1137    1.7700    3.6814 C   0  0  0  0  0  0  0  0  0  0  0  0
    2.0416    2.4842    3.1401 C   0  0  0  0  0  0  0  0  0  0  0  0
    1.5655    2.0861    1.8911 C   0  0  0  0  0  0  0  0  0  0  0  0
    2.3641    1.3814    1.0362 C   0  0  0  0  0  0  0  0  0  0  0  0
    1.7409    0.9073   -0.2858 C   0  0  0  0  0  0  0  0  0  0  0  0
    0.7656    1.0934   -1.4804 C   0  0  0  0  0  0  0  0  0  0  0  0
    0.5347   -0.3460   -2.1744 C   0  0  0  0  0  0  0  0  0  0  0  0
    0.0302   -1.5953   -1.5250 N   0  0  0  0  0  0  0  0  0  0  0  0
   -1.2813   -2.0296   -2.0437 C   0  0  0  0  0  0  0  0  0  0  0  0
   -2.3645   -0.9345   -2.0016 C   0  0  0  0  0  0  0  0  0  0  0  0
   -3.7837   -1.4305   -1.6453 C   0  0  0  0  0  0  0  0  0  0  0  0
   -3.9184   -1.8631   -0.1771 C   0  0  0  0  0  0  0  0  0  0  0  0
   -3.7365   -0.6989    0.8129 C   0  0  0  0  0  0  0  0  0  0  0  0
   -3.9394    0.6205    0.1957 N   0  0  0  0  0  0  0  0  0  0  0  0
   -4.0019    1.6814    1.2084 C   0  0  0  0  0  0  0  0  0  0  0  0
   -3.6238    3.0547    0.6339 C   0  0  0  0  0  0  0  0  0  0  0  0
   -3.5250    4.0119    1.6861 O   0  0  0  0  0  0  0  0  0  0  0  0
   -5.0876    0.6018   -0.7083 C   0  0  0  0  0  0  0  0  0  0  0  0
   -4.8272   -0.3209   -1.9133 C   0  0  0  0  0  0  0  0  0  0  0  0
    0.2203   -1.9691   -0.0977 C   0  0  0  0  0  0  0  0  0  0  0  0
    0.7148   -3.3967    0.1815 C   0  0  0  0  0  0  0  0  0  0  0  0
    1.1902   -3.3582    1.6511 C   0  0  0  0  0  0  0  0  0  0  0  0
    1.4952   -1.9122    1.9735 C   0  0  0  0  0  0  0  0  0  0  0  0
    1.1356   -1.5081    3.2984 O   0  0  0  0  0  0  0  0  0  0  0  0
    1.0045   -1.0795    0.8361 C   0  0  0  0  0  0  0  0  0  0  0  0
    0.5648    0.3151    0.6375 C   0  0  0  0  0  0  0  0  0  0  0  0
    0.2330    1.3628    1.7496 C   0  0  0  0  0  0  0  0  0  0  0  0
    4.3496    1.9699   -5.0271 H   0  0  0  0  0  0  0  0  0  0  0  0
    2.9142    2.6933   -4.0909 H   0  0  0  0  0  0  0  0  0  0  0  0
    2.9948    2.5835   -1.6463 H   0  0  0  0  0  0  0  0  0  0  0  0
    4.4422    2.0095   -0.8925 H   0  0  0  0  0  0  0  0  0  0  0  0
    4.3997   -0.9424   -1.5899 H   0  0  0  0  0  0  0  0  0  0  0  0
    4.7636   -0.0040   -0.1675 H   0  0  0  0  0  0  0  0  0  0  0  0
    4.3228   -2.1335    0.6616 H   0  0  0  0  0  0  0  0  0  0  0  0
    3.0057   -2.3880   -0.4576 H   0  0  0  0  0  0  0  0  0  0  0  0
    4.6687    0.0721    4.4423 H   0  0  0  0  0  0  0  0  0  0  0  0
    3.4579    2.0023    4.6822 H   0  0  0  0  0  0  0  0  0  0  0  0
    1.4708    3.1657    3.7627 H   0  0  0  0  0  0  0  0  0  0  0  0
   -0.1953    1.5600   -1.2223 H   0  0  0  0  0  0  0  0  0  0  0  0
    1.1463    1.7767   -2.2497 H   0  0  0  0  0  0  0  0  0  0  0  0
    1.4790   -0.6503   -2.6442 H   0  0  0  0  0  0  0  0  0  0  0  0
   -0.0866   -0.1266   -3.0544 H   0  0  0  0  0  0  0  0  0  0  0  0
   -1.6131   -2.9422   -1.5368 H   0  0  0  0  0  0  0  0  0  0  0  0
   -1.1458   -2.3343   -3.0906 H   0  0  0  0  0  0  0  0  0  0  0  0
   -2.0705   -0.1376   -1.3155 H   0  0  0  0  0  0  0  0  0  0  0  0
   -2.3981   -0.4638   -2.9933 H   0  0  0  0  0  0  0  0  0  0  0  0
   -4.0145   -2.2832   -2.2966 H   0  0  0  0  0  0  0  0  0  0  0  0
   -3.2193   -2.6701    0.0656 H   0  0  0  0  0  0  0  0  0  0  0  0
   -4.9246   -2.2816   -0.0379 H   0  0  0  0  0  0  0  0  0  0  0  0
   -2.7213   -0.7398    1.2230 H   0  0  0  0  0  0  0  0  0  0  0  0
   -4.4249   -0.8499    1.6538 H   0  0  0  0  0  0  0  0  0  0  0  0
   -4.9876    1.7276    1.6896 H   0  0  0  0  0  0  0  0  0  0  0  0
   -3.2892    1.4694    2.0173 H   0  0  0  0  0  0  0  0  0  0  0  0
   -2.6522    3.0039    0.1305 H   0  0  0  0  0  0  0  0  0  0  0  0
   -4.3727    3.4115   -0.0787 H   0  0  0  0  0  0  0  0  0  0  0  0
   -3.1932    4.8328    1.2831 H   0  0  0  0  0  0  0  0  0  0  0  0
   -5.9878    0.2717   -0.1738 H   0  0  0  0  0  0  0  0  0  0  0  0
   -5.3096    1.6014   -1.0990 H   0  0  0  0  0  0  0  0  0  0  0  0
   -4.5262    0.2775   -2.7811 H   0  0  0  0  0  0  0  0  0  0  0  0
   -5.7811   -0.7900   -2.1866 H   0  0  0  0  0  0  0  0  0  0  0  0
   -0.7871   -1.9446    0.3470 H   0  0  0  0  0  0  0  0  0  0  0  0
    1.5285   -3.6905   -0.4871 H   0  0  0  0  0  0  0  0  0  0  0  0
   -0.0736   -4.1442    0.0388 H   0  0  0  0  0  0  0  0  0  0  0  0
    2.0645   -3.9979    1.8027 H   0  0  0  0  0  0  0  0  0  0  0  0
    0.3853   -3.7241    2.2997 H   0  0  0  0  0  0  0  0  0  0  0  0
    1.9409   -1.3434    3.8218 H   0  0  0  0  0  0  0  0  0  0  0  0
   -0.4319    0.2366    0.1876 H   0  0  0  0  0  0  0  0  0  0  0  0
   -0.5213    2.0847    1.4190 H   0  0  0  0  0  0  0  0  0  0  0  0
   -0.0840    0.8731    2.6757 H   0  0  0  0  0  0  0  0  0  0  0  0
  2  1  2  0  0  0  0
  3  2  1  0  0  0  0
  4  2  1  0  0  0  0
  5  4  1  0  0  0  0
  6  5  1  0  0  0  0
  7  6  1  0  0  0  0
  8  7  1  0  0  0  0
  9  8  1  0  0  0  0
 10  9  2  0  0  0  0
 11 10  1  0  0  0  0
 12 10  1  0  0  0  0
 13 12  2  0  0  0  0
 14 13  1  0  0  0  0
 15 14  2  0  0  0  0
 15  9  1  0  0  0  0
 16 15  1  0  0  0  0
 16  5  1  0  0  0  0
 17 16  1  0  0  0  0
 18 17  1  0  0  0  0
 19 18  1  0  0  0  0
 20 19  1  0  0  0  0
 21 20  1  0  0  0  0
 22 21  1  0  0  0  0
 23 22  1  0  0  0  0
 24 23  1  0  0  0  0
 25 24  1  0  0  0  0
 26 25  1  0  0  0  0
 27 26  1  0  0  0  0
 28 27  1  0  0  0  0
 29 25  1  0  0  0  0
 30 29  1  0  0  0  0
 30 22  1  0  0  0  0
 31 19  1  0  0  0  0
 32 31  1  0  0  0  0
 33 32  1  0  0  0  0
 34 33  1  0  0  0  0
 34  8  1  0  0  0  0
 35 34  1  0  0  0  0
 36 34  1  0  0  0  0
 36 31  1  0  0  0  0
 36  8  1  0  0  0  0
 37 36  1  0  0  0  0
 37 16  1  0  0  0  0
 38 37  1  0  0  0  0
 38 14  1  0  0  0  0
  1 39  1  0  0  0  0
  1 40  1  0  0  0  0
  4 41  1  0  0  0  0
  4 42  1  0  0  0  0
  6 43  1  0  0  0  0
  6 44  1  0  0  0  0
  7 45  1  0  0  0  0
  7 46  1  0  0  0  0
 11 47  1  0  0  0  0
 12 48  1  0  0  0  0
 13 49  1  0  0  0  0
 17 50  1  0  0  0  0
 17 51  1  0  0  0  0
 18 52  1  0  0  0  0
 18 53  1  0  0  0  0
 20 54  1  0  0  0  0
 20 55  1  0  0  0  0
 21 56  1  0  0  0  0
 21 57  1  0  0  0  0
 22 58  1  0  0  0  0
 23 59  1  0  0  0  0
 23 60  1  0  0  0  0
 24 61  1  0  0  0  0
 24 62  1  0  0  0  0
 26 63  1  0  0  0  0
 26 64  1  0  0  0  0
 27 65  1  0  0  0  0
 27 66  1  0  0  0  0
 28 67  1  0  0  0  0
 29 68  1  0  0  0  0
 29 69  1  0  0  0  0
 30 70  1  0  0  0  0
 30 71  1  0  0  0  0
 31 72  1  0  0  0  0
 32 73  1  0  0  0  0
 32 74  1  0  0  0  0
 33 75  1  0  0  0  0
 33 76  1  0  0  0  0
 35 77  1  0  0  0  0
 37 78  1  0  0  0  0
 38 79  1  0  0  0  0
 38 80  1  0  0  0  0
M  END
>  <energy>
325.07201996868798

$$$$
