O=C(O)C1CC2CCC(C1)C2C=NOC1C2CC3CN2C31
                    3D

 43 47  0  0  0  0  0  0  0  0999 V2000
   -5.1447   -0.9068    1.0345 O   0  0  0  0  0  0  0  0  0  0  0  0
   -4.6404   -1.9352    0.5973 C   0  0  0  0  0  0  0  0  0  0  0  0
   -5.3025   -3.1119    0.5972 O   0  0  0  0  0  0  0  0  0  0  0  0
   -3.2491   -2.0078   -0.0052 C   0  0  0  0  0  0  0  0  0  0  0  0
   -2.1910   -1.5398    1.0220 C   0  0  0  0  0  0  0  0  0  0  0  0
   -1.4396   -0.2684    0.6320 C   0  0  0  0  0  0  0  0  0  0  0  0
   -2.3363    0.9772    0.6939 C   0  0  0  0  0  0  0  0  0  0  0  0
   -2.9617    1.1027   -0.6918 C   0  0  0  0  0  0  0  0  0  0  0  0
   -2.3765   -0.0560   -1.5092 C   0  0  0  0  0  0  0  0  0  0  0  0
   -3.2391   -1.3258   -1.4024 C   0  0  0  0  0  0  0  0  0  0  0  0
   -1.0516   -0.3731   -0.8390 C   0  0  0  0  0  0  0  0  0  0  0  0
    0.1043    0.5366   -1.1242 C   0  0  0  0  0  0  0  0  0  0  0  0
    1.2414   -0.0092   -1.3686 N   0  0  0  0  0  0  0  0  0  0  0  0
    2.2265    0.9742   -1.4298 O   0  0  0  0  0  0  0  0  0  0  0  0
    3.4648    0.3682   -1.0017 C   0  0  0  0  0  0  0  0  0  0  0  0
    3.6371    0.0267    0.5138 C   0  0  0  0  0  0  0  0  0  0  0  0
    3.2268    1.2330    1.3343 C   0  0  0  0  0  0  0  0  0  0  0  0
    4.3366    2.0457    0.7091 C   0  0  0  0  0  0  0  0  0  0  0  0
    5.6237    1.3207    1.1365 C   0  0  0  0  0  0  0  0  0  0  0  0
    5.1555    0.1893    0.2573 N   0  0  0  0  0  0  0  0  0  0  0  0
    4.5927    1.3556   -0.6589 C   0  0  0  0  0  0  0  0  0  0  0  0
   -4.8330   -3.8395    0.1520 H   0  0  0  0  0  0  0  0  0  0  0  0
   -3.0421   -3.0750   -0.1739 H   0  0  0  0  0  0  0  0  0  0  0  0
   -1.4460   -2.3394    1.1249 H   0  0  0  0  0  0  0  0  0  0  0  0
   -2.6233   -1.4174    2.0214 H   0  0  0  0  0  0  0  0  0  0  0  0
   -0.5687   -0.1377    1.2838 H   0  0  0  0  0  0  0  0  0  0  0  0
   -1.7294    1.8692    0.9011 H   0  0  0  0  0  0  0  0  0  0  0  0
   -3.0914    0.9097    1.4817 H   0  0  0  0  0  0  0  0  0  0  0  0
   -4.0572    1.0800   -0.6515 H   0  0  0  0  0  0  0  0  0  0  0  0
   -2.6722    2.0662   -1.1379 H   0  0  0  0  0  0  0  0  0  0  0  0
   -2.2712    0.2380   -2.5596 H   0  0  0  0  0  0  0  0  0  0  0  0
   -4.2575   -1.1231   -1.7506 H   0  0  0  0  0  0  0  0  0  0  0  0
   -2.8277   -2.0578   -2.1092 H   0  0  0  0  0  0  0  0  0  0  0  0
   -0.7201   -1.3853   -1.1045 H   0  0  0  0  0  0  0  0  0  0  0  0
   -0.0462    1.6282   -1.0190 H   0  0  0  0  0  0  0  0  0  0  0  0
    3.7542   -0.4464   -1.6804 H   0  0  0  0  0  0  0  0  0  0  0  0
    3.3226   -0.9702    0.8413 H   0  0  0  0  0  0  0  0  0  0  0  0
    2.2215    1.5970    1.1071 H   0  0  0  0  0  0  0  0  0  0  0  0
    3.3398    1.1043    2.4179 H   0  0  0  0  0  0  0  0  0  0  0  0
    4.3047    3.1348    0.7623 H   0  0  0  0  0  0  0  0  0  0  0  0
    5.7222    1.0576    2.1940 H   0  0  0  0  0  0  0  0  0  0  0  0
    6.5699    1.7665    0.8155 H   0  0  0  0  0  0  0  0  0  0  0  0
    5.2743    1.7445   -1.4138 H   0  0  0  0  0  0  0  0  0  0  0  0
  2  1  2  0  0  0  0
  3  2  1  0  0  0  0
  4  2  1  0  0  0  0
  5  4  1  0  0  0  0
  6  5  1  0  0  0  0
  7  6  1  0  0  0  0
  8  7  1  0  0  0  0
  9  8  1  0  0  0  0
 10  9  1  0  0  0  0
 10  4  1  0  0  0  0
 11  9  1  0  0  0  0
 11  6  1  0  0  0  0
 12 11  1  0  0  0  0
 13 12  2  0  0  0  0
 14 13  1  0  0  0  0
 15 14  1  0  0  0  0
 16 15  1  0  0  0  0
 17 16  1  0  0  0  0
 18 17  1  0  0  0  0
 19 18  1  0  0  0  0
 20 19  1  0  0  0  0
 20 16  1  0  0  0  0
 21 20  1  0  0  0  0
 21 18  1  0  0  0  0
 21 15  1  0  0  0  0
  3 22  1  0  0  0  0
  4 23  1  0  0  0  0
  5 24  1  0  0  0  0
  5 25  1  0  0  0  0
  6 26  1  0  0  0  0
  7 27  1  0  0  0  0
  7 28  1  0  0  0  0
  8 29  1  0  0  0  0
  8 30  1  0  0  0  0
  9 31  1  0  0  0  0
 10 32  1  0  0  0  0
 10 33  1  0  0  0  0
 11 34  1  0  0  0  0
 12 35  1  0  0  0  0
 15 36  1  0  0  0  0
 16 37  1  0  0  0  0
 17 38  1  0  0  0  0
 17 39  1  0  0  0  0
 18 40  1  0  0  0  0
 19 41  1  0  0  0  0
 19 42  1  0  0  0  0
 21 43  1  0  0  0  0
M  END
>  <energy>
70.870872073227673

$$$$
