COCC12C3(C#N)C4CC5CCCCC5(C)C1(OC)CC(C(=O)O)C1(C)C3C4C(O)C12COC(C)=O
                    3D

 75 80  0  0  0  0  0  0  0  0999 V2000
   -0.5635   -0.6403   -4.6442 C   0  0  0  0  0  0  0  0  0  0  0  0
   -0.3933   -0.2187   -3.2979 O   0  0  0  0  0  0  0  0  0  0  0  0
   -0.4263   -1.3086   -2.3814 C   0  0  0  0  0  0  0  0  0  0  0  0
   -0.2502   -0.7789   -0.9212 C   0  0  0  0  0  0  0  0  0  0  0  0
   -0.3214   -1.9535    0.2501 C   0  0  0  0  0  0  0  0  0  0  0  0
   -0.7041   -3.2478   -0.3410 C   0  0  0  0  0  0  0  0  0  0  0  0
   -1.0215   -4.2649   -0.8004 N   0  0  0  0  0  0  0  0  0  0  0  0
    0.1996   -2.2170    1.7405 C   0  0  0  0  0  0  0  0  0  0  0  0
   -0.2402   -1.1450    2.7314 C   0  0  0  0  0  0  0  0  0  0  0  0
   -1.5948   -0.3933    2.4776 C   0  0  0  0  0  0  0  0  0  0  0  0
   -1.6121    0.8161    3.4712 C   0  0  0  0  0  0  0  0  0  0  0  0
   -2.6150    1.9174    3.2074 C   0  0  0  0  0  0  0  0  0  0  0  0
   -3.8419    1.3710    2.5198 C   0  0  0  0  0  0  0  0  0  0  0  0
   -3.4649    0.9160    1.1203 C   0  0  0  0  0  0  0  0  0  0  0  0
   -2.3037   -0.1761    1.0097 C   0  0  0  0  0  0  0  0  0  0  0  0
   -3.1172   -1.5165    0.8298 C   0  0  0  0  0  0  0  0  0  0  0  0
   -1.4028    0.2209   -0.3841 C   0  0  0  0  0  0  0  0  0  0  0  0
   -2.2736    0.6651   -1.4502 O   0  0  0  0  0  0  0  0  0  0  0  0
   -3.3351   -0.0908   -1.9792 C   0  0  0  0  0  0  0  0  0  0  0  0
   -0.6529    1.5205   -0.1561 C   0  0  0  0  0  0  0  0  0  0  0  0
    0.5257    1.3423    0.7451 C   0  0  0  0  0  0  0  0  0  0  0  0
    1.2456    2.6923    0.7129 C   0  0  0  0  0  0  0  0  0  0  0  0
    2.0510    3.0902   -0.1117 O   0  0  0  0  0  0  0  0  0  0  0  0
    0.8588    3.5018    1.7204 O   0  0  0  0  0  0  0  0  0  0  0  0
    1.4557    0.1436    0.5118 C   0  0  0  0  0  0  0  0  0  0  0  0
    2.6897    0.3748    1.4510 C   0  0  0  0  0  0  0  0  0  0  0  0
    1.0216   -1.4295    0.2570 C   0  0  0  0  0  0  0  0  0  0  0  0
    1.8436   -2.2835    1.0394 C   0  0  0  0  0  0  0  0  0  0  0  0
    2.7462   -1.5041   -0.3493 C   0  0  0  0  0  0  0  0  0  0  0  0
    3.0040   -2.4517   -1.3885 O   0  0  0  0  0  0  0  0  0  0  0  0
    1.5673   -0.2265   -0.8878 C   0  0  0  0  0  0  0  0  0  0  0  0
    2.1345    0.5960   -2.0203 C   0  0  0  0  0  0  0  0  0  0  0  0
    3.4156    1.0999   -1.6096 O   0  0  0  0  0  0  0  0  0  0  0  0
    4.3877    1.1756   -2.5517 C   0  0  0  0  0  0  0  0  0  0  0  0
    5.6164    1.7767   -1.9333 C   0  0  0  0  0  0  0  0  0  0  0  0
    4.3150    0.7951   -3.7107 O   0  0  0  0  0  0  0  0  0  0  0  0
   -0.5024    0.2383   -5.2923 H   0  0  0  0  0  0  0  0  0  0  0  0
    0.2268   -1.3407   -4.9319 H   0  0  0  0  0  0  0  0  0  0  0  0
   -1.5478   -1.0992   -4.7828 H   0  0  0  0  0  0  0  0  0  0  0  0
   -1.3424   -1.8875   -2.5066 H   0  0  0  0  0  0  0  0  0  0  0  0
    0.3915   -1.9925   -2.6405 H   0  0  0  0  0  0  0  0  0  0  0  0
   -0.0866   -3.1998    2.1497 H   0  0  0  0  0  0  0  0  0  0  0  0
    0.5755   -0.4399    2.8807 H   0  0  0  0  0  0  0  0  0  0  0  0
   -0.3130   -1.6207    3.7218 H   0  0  0  0  0  0  0  0  0  0  0  0
   -2.3126   -1.0741    2.9678 H   0  0  0  0  0  0  0  0  0  0  0  0
   -0.6276    1.2787    3.5907 H   0  0  0  0  0  0  0  0  0  0  0  0
   -1.8258    0.4025    4.4669 H   0  0  0  0  0  0  0  0  0  0  0  0
   -2.8935    2.3923    4.1549 H   0  0  0  0  0  0  0  0  0  0  0  0
   -2.1524    2.7016    2.5941 H   0  0  0  0  0  0  0  0  0  0  0  0
   -4.2863    0.5501    3.0934 H   0  0  0  0  0  0  0  0  0  0  0  0
   -4.6043    2.1570    2.4468 H   0  0  0  0  0  0  0  0  0  0  0  0
   -4.3849    0.5520    0.6502 H   0  0  0  0  0  0  0  0  0  0  0  0
   -3.2138    1.8170    0.5528 H   0  0  0  0  0  0  0  0  0  0  0  0
   -2.5697   -2.3982    1.1666 H   0  0  0  0  0  0  0  0  0  0  0  0
   -4.0204   -1.5077    1.4543 H   0  0  0  0  0  0  0  0  0  0  0  0
   -3.4462   -1.7133   -0.1844 H   0  0  0  0  0  0  0  0  0  0  0  0
   -4.2329    0.0149   -1.3693 H   0  0  0  0  0  0  0  0  0  0  0  0
   -3.1047   -1.1452   -2.1140 H   0  0  0  0  0  0  0  0  0  0  0  0
   -3.5778    0.3238   -2.9616 H   0  0  0  0  0  0  0  0  0  0  0  0
   -0.3364    1.9313   -1.1261 H   0  0  0  0  0  0  0  0  0  0  0  0
   -1.3009    2.3132    0.2368 H   0  0  0  0  0  0  0  0  0  0  0  0
    0.1557    1.2649    1.7567 H   0  0  0  0  0  0  0  0  0  0  0  0
    1.3463    4.3334    1.5327 H   0  0  0  0  0  0  0  0  0  0  0  0
    3.1507   -0.5204    1.8828 H   0  0  0  0  0  0  0  0  0  0  0  0
    2.3937    0.9495    2.3407 H   0  0  0  0  0  0  0  0  0  0  0  0
    3.4723    0.9584    0.9528 H   0  0  0  0  0  0  0  0  0  0  0  0
    1.1156   -2.0986   -0.7038 H   0  0  0  0  0  0  0  0  0  0  0  0
    2.0294   -3.3364    0.7661 H   0  0  0  0  0  0  0  0  0  0  0  0
    3.7134   -1.1111   -0.0145 H   0  0  0  0  0  0  0  0  0  0  0  0
    3.6830   -3.0696   -1.0609 H   0  0  0  0  0  0  0  0  0  0  0  0
    1.5038    1.4526   -2.2661 H   0  0  0  0  0  0  0  0  0  0  0  0
    2.2300   -0.0334   -2.9095 H   0  0  0  0  0  0  0  0  0  0  0  0
    6.0998    1.0396   -1.2879 H   0  0  0  0  0  0  0  0  0  0  0  0
    5.3473    2.6678   -1.3585 H   0  0  0  0  0  0  0  0  0  0  0  0
    6.3042    2.0809   -2.7255 H   0  0  0  0  0  0  0  0  0  0  0  0
  2  1  1  0  0  0  0
  3  2  1  0  0  0  0
  4  3  1  0  0  0  0
  5  4  1  0  0  0  0
  6  5  1  0  0  0  0
  7  6  3  0  0  0  0
  8  5  1  0  0  0  0
  9  8  1  0  0  0  0
 10  9  1  0  0  0  0
 11 10  1  0  0  0  0
 12 11  1  0  0  0  0
 13 12  1  0  0  0  0
 14 13  1  0  0  0  0
 15 14  1  0  0  0  0
 15 10  1  0  0  0  0
 16 15  1  0  0  0  0
 17 15  1  0  0  0  0
 17  4  1  0  0  0  0
 18 17  1  0  0  0  0
 19 18  1  0  0  0  0
 20 17  1  0  0  0  0
 21 20  1  0  0  0  0
 22 21  1  0  0  0  0
 23 22  2  0  0  0  0
 24 22  1  0  0  0  0
 25 21  1  0  0  0  0
 26 25  1  0  0  0  0
 27 25  1  0  0  0  0
 27  5  1  0  0  0  0
 28 27  1  0  0  0  0
 28  8  1  0  0  0  0
 29 28  1  0  0  0  0
 30 29  1  0  0  0  0
 31 29  1  0  0  0  0
 31 25  1  0  0  0  0
 31  4  1  0  0  0  0
 32 31  1  0  0  0  0
 33 32  1  0  0  0  0
 34 33  1  0  0  0  0
 35 34  1  0  0  0  0
 36 34  2  0  0  0  0
  1 37  1  0  0  0  0
  1 38  1  0  0  0  0
  1 39  1  0  0  0  0
  3 40  1  0  0  0  0
  3 41  1  0  0  0  0
  8 42  1  0  0  0  0
  9 43  1  0  0  0  0
  9 44  1  0  0  0  0
 10 45  1  0  0  0  0
 11 46  1  0  0  0  0
 11 47  1  0  0  0  0
 12 48  1  0  0  0  0
 12 49  1  0  0  0  0
 13 50  1  0  0  0  0
 13 51  1  0  0  0  0
 14 52  1  0  0  0  0
 14 53  1  0  0  0  0
 16 54  1  0  0  0  0
 16 55  1  0  0  0  0
 16 56  1  0  0  0  0
 19 57  1  0  0  0  0
 19 58  1  0  0  0  0
 19 59  1  0  0  0  0
 20 60  1  0  0  0  0
 20 61  1  0  0  0  0
 21 62  1  0  0  0  0
 24 63  1  0  0  0  0
 26 64  1  0  0  0  0
 26 65  1  0  0  0  0
 26 66  1  0  0  0  0
 27 67  1  0  0  0  0
 28 68  1  0  0  0  0
 29 69  1  0  0  0  0
 30 70  1  0  0  0  0
 32 71  1  0  0  0  0
 32 72  1  0  0  0  0
 35 73  1  0  0  0  0
 35 74  1  0  0  0  0
 35 75  1  0  0  0  0
M  END
>  <energy>
489.52985165752671

$$$$
