C=C1C2CC34OOC5(C)C(C)CSC36CC(CC4C(C)C(=O)NCCOC)C(C)(O)C(OC16)C25
                    3D

 73 78  0  0  0  0  0  0  0  0999 V2000
    5.2549    1.1679    1.1853 C   0  0  0  0  0  0  0  0  0  0  0  0
    4.0290    0.8045    0.7773 C   0  0  0  0  0  0  0  0  0  0  0  0
    3.0325    0.0192    1.4659 C   0  0  0  0  0  0  0  0  0  0  0  0
    1.9082    1.1280    1.8805 C   0  0  0  0  0  0  0  0  0  0  0  0
    0.8033    1.0309    0.8535 C   0  0  0  0  0  0  0  0  0  0  0  0
    0.0503   -0.1643    1.2757 O   0  0  0  0  0  0  0  0  0  0  0  0
    0.8740   -1.1849    1.9567 O   0  0  0  0  0  0  0  0  0  0  0  0
    1.5986   -2.0289    1.0131 C   0  0  0  0  0  0  0  0  0  0  0  0
    2.3642   -2.9955    1.9769 C   0  0  0  0  0  0  0  0  0  0  0  0
    0.7109   -2.9344    0.1666 C   0  0  0  0  0  0  0  0  0  0  0  0
   -0.6169   -3.3292    0.8351 C   0  0  0  0  0  0  0  0  0  0  0  0
    0.5034   -2.3375   -1.1912 C   0  0  0  0  0  0  0  0  0  0  0  0
    0.0069   -0.6096   -1.1571 S   0  0  0  0  0  0  0  0  0  0  0  0
    1.5594    0.9367   -0.4716 C   0  0  0  0  0  0  0  0  0  0  0  0
    1.5451    2.2402   -1.4026 C   0  0  0  0  0  0  0  0  0  0  0  0
    0.6489    1.6664   -2.3796 C   0  0  0  0  0  0  0  0  0  0  0  0
   -0.6710    1.9858   -1.3129 C   0  0  0  0  0  0  0  0  0  0  0  0
   -0.3160    2.0816    0.4069 C   0  0  0  0  0  0  0  0  0  0  0  0
   -1.5736    2.2691    1.2953 C   0  0  0  0  0  0  0  0  0  0  0  0
   -1.1963    2.4134    2.7765 C   0  0  0  0  0  0  0  0  0  0  0  0
   -2.7399    1.2828    1.1709 C   0  0  0  0  0  0  0  0  0  0  0  0
   -2.8973    0.3250    1.9206 O   0  0  0  0  0  0  0  0  0  0  0  0
   -3.6788    1.6383    0.2145 N   0  0  0  0  0  0  0  0  0  0  0  0
   -5.0587    1.1773    0.3337 C   0  0  0  0  0  0  0  0  0  0  0  0
   -5.2933   -0.3011    0.0246 C   0  0  0  0  0  0  0  0  0  0  0  0
   -6.7032   -0.5636    0.0978 O   0  0  0  0  0  0  0  0  0  0  0  0
   -6.9751   -1.9531   -0.0261 C   0  0  0  0  0  0  0  0  0  0  0  0
    1.7663    0.2630   -2.7922 C   0  0  0  0  0  0  0  0  0  0  0  0
    1.2027   -0.6285   -3.9275 C   0  0  0  0  0  0  0  0  0  0  0  0
    2.8257    0.9515   -3.5800 O   0  0  0  0  0  0  0  0  0  0  0  0
    2.7824   -0.7026   -1.5334 C   0  0  0  0  0  0  0  0  0  0  0  0
    3.8785    0.2192   -1.4357 O   0  0  0  0  0  0  0  0  0  0  0  0
    3.3334    1.1057   -0.4769 C   0  0  0  0  0  0  0  0  0  0  0  0
    2.6727   -1.1608    0.2786 C   0  0  0  0  0  0  0  0  0  0  0  0
    5.6433    0.8551    2.1514 H   0  0  0  0  0  0  0  0  0  0  0  0
    5.9072    1.7558    0.5467 H   0  0  0  0  0  0  0  0  0  0  0  0
    3.4427   -0.4376    2.3742 H   0  0  0  0  0  0  0  0  0  0  0  0
    2.3254    2.1437    1.9160 H   0  0  0  0  0  0  0  0  0  0  0  0
    1.5522    0.9084    2.8963 H   0  0  0  0  0  0  0  0  0  0  0  0
    2.9765   -2.4591    2.7076 H   0  0  0  0  0  0  0  0  0  0  0  0
    3.0201   -3.6780    1.4244 H   0  0  0  0  0  0  0  0  0  0  0  0
    1.6705   -3.5990    2.5728 H   0  0  0  0  0  0  0  0  0  0  0  0
    1.2417   -3.8801   -0.0182 H   0  0  0  0  0  0  0  0  0  0  0  0
   -1.2946   -2.4797    0.9643 H   0  0  0  0  0  0  0  0  0  0  0  0
   -1.1374   -4.0755    0.2247 H   0  0  0  0  0  0  0  0  0  0  0  0
   -0.4479   -3.7838    1.8154 H   0  0  0  0  0  0  0  0  0  0  0  0
    1.3454   -2.5414   -1.8524 H   0  0  0  0  0  0  0  0  0  0  0  0
   -0.3215   -2.8673   -1.6840 H   0  0  0  0  0  0  0  0  0  0  0  0
    2.4397    2.5166   -1.9667 H   0  0  0  0  0  0  0  0  0  0  0  0
    1.3127    3.2000   -0.9349 H   0  0  0  0  0  0  0  0  0  0  0  0
    0.5349    2.2787   -3.2807 H   0  0  0  0  0  0  0  0  0  0  0  0
   -1.5379    1.3497   -1.5226 H   0  0  0  0  0  0  0  0  0  0  0  0
   -1.0082    3.0016   -1.5704 H   0  0  0  0  0  0  0  0  0  0  0  0
    0.1664    3.0642    0.5272 H   0  0  0  0  0  0  0  0  0  0  0  0
   -1.9899    3.2483    1.0121 H   0  0  0  0  0  0  0  0  0  0  0  0
   -0.4341    3.1880    2.9142 H   0  0  0  0  0  0  0  0  0  0  0  0
   -0.8199    1.4782    3.1987 H   0  0  0  0  0  0  0  0  0  0  0  0
   -2.0721    2.7059    3.3670 H   0  0  0  0  0  0  0  0  0  0  0  0
   -3.5511    2.5237   -0.2521 H   0  0  0  0  0  0  0  0  0  0  0  0
   -5.4115    1.4051    1.3490 H   0  0  0  0  0  0  0  0  0  0  0  0
   -5.6616    1.7948   -0.3451 H   0  0  0  0  0  0  0  0  0  0  0  0
   -4.9354   -0.5358   -0.9840 H   0  0  0  0  0  0  0  0  0  0  0  0
   -4.7616   -0.9341    0.7415 H   0  0  0  0  0  0  0  0  0  0  0  0
   -6.6524   -2.3182   -1.0053 H   0  0  0  0  0  0  0  0  0  0  0  0
   -8.0540   -2.1036    0.0661 H   0  0  0  0  0  0  0  0  0  0  0  0
   -6.4782   -2.5154    0.7706 H   0  0  0  0  0  0  0  0  0  0  0  0
    0.2696   -1.1466   -3.7089 H   0  0  0  0  0  0  0  0  0  0  0  0
    1.0249   -0.0216   -4.8256 H   0  0  0  0  0  0  0  0  0  0  0  0
    1.9538   -1.3797   -4.2090 H   0  0  0  0  0  0  0  0  0  0  0  0
    3.6708    0.7478   -3.1253 H   0  0  0  0  0  0  0  0  0  0  0  0
    3.1769   -1.5814   -2.0613 H   0  0  0  0  0  0  0  0  0  0  0  0
    3.6685    2.1280   -0.6978 H   0  0  0  0  0  0  0  0  0  0  0  0
    3.5946   -1.7685    0.2848 H   0  0  0  0  0  0  0  0  0  0  0  0
  2  1  2  0  0  0  0
  3  2  1  0  0  0  0
  4  3  1  0  0  0  0
  5  4  1  0  0  0  0
  6  5  1  0  0  0  0
  7  6  1  0  0  0  0
  8  7  1  0  0  0  0
  9  8  1  0  0  0  0
 10  8  1  0  0  0  0
 11 10  1  0  0  0  0
 12 10  1  0  0  0  0
 13 12  1  0  0  0  0
 14 13  1  0  0  0  0
 14  5  1  0  0  0  0
 15 14  1  0  0  0  0
 16 15  1  0  0  0  0
 17 16  1  0  0  0  0
 18 17  1  0  0  0  0
 18  5  1  0  0  0  0
 19 18  1  0  0  0  0
 20 19  1  0  0  0  0
 21 19  1  0  0  0  0
 22 21  2  0  0  0  0
 23 21  1  0  0  0  0
 24 23  1  0  0  0  0
 25 24  1  0  0  0  0
 26 25  1  0  0  0  0
 27 26  1  0  0  0  0
 28 16  1  0  0  0  0
 29 28  1  0  0  0  0
 30 28  1  0  0  0  0
 31 28  1  0  0  0  0
 32 31  1  0  0  0  0
 33 32  1  0  0  0  0
 33  2  1  0  0  0  0
 33 14  1  0  0  0  0
 34 31  1  0  0  0  0
 34  3  1  0  0  0  0
 34  8  1  0  0  0  0
  1 35  1  0  0  0  0
  1 36  1  0  0  0  0
  3 37  1  0  0  0  0
  4 38  1  0  0  0  0
  4 39  1  0  0  0  0
  9 40  1  0  0  0  0
  9 41  1  0  0  0  0
  9 42  1  0  0  0  0
 10 43  1  0  0  0  0
 11 44  1  0  0  0  0
 11 45  1  0  0  0  0
 11 46  1  0  0  0  0
 12 47  1  0  0  0  0
 12 48  1  0  0  0  0
 15 49  1  0  0  0  0
 15 50  1  0  0  0  0
 16 51  1  0  0  0  0
 17 52  1  0  0  0  0
 17 53  1  0  0  0  0
 18 54  1  0  0  0  0
 19 55  1  0  0  0  0
 20 56  1  0  0  0  0
 20 57  1  0  0  0  0
 20 58  1  0  0  0  0
 23 59  1  0  0  0  0
 24 60  1  0  0  0  0
 24 61  1  0  0  0  0
 25 62  1  0  0  0  0
 25 63  1  0  0  0  0
 27 64  1  0  0  0  0
 27 65  1  0  0  0  0
 27 66  1  0  0  0  0
 29 67  1  0  0  0  0
 29 68  1  0  0  0  0
 29 69  1  0  0  0  0
 30 70  1  0  0  0  0
 31 71  1  0  0  0  0
 33 72  1  0  0  0  0
 34 73  1  0  0  0  0
M  END
>  <energy>
609.27237685037562

$$$$
