CCCCCN1CCC2C3(O)C4C5C(=O)CC4(O)C1CC1C(C=CC4CC4)C3C152
                    3D

 64 70  0  0  0  0  0  0  0  0999 V2000
   -3.4855    4.2383   -0.3007 C   0  0  0  0  0  0  0  0  0  0  0  0
   -2.8914    2.9837   -0.9259 C   0  0  0  0  0  0  0  0  0  0  0  0
   -1.7889    3.3143   -1.9328 C   0  0  0  0  0  0  0  0  0  0  0  0
   -1.3374    2.0821   -2.7264 C   0  0  0  0  0  0  0  0  0  0  0  0
    0.1913    1.9421   -2.8937 C   0  0  0  0  0  0  0  0  0  0  0  0
    0.7554    0.8216   -2.1075 N   0  0  0  0  0  0  0  0  0  0  0  0
    1.9516    0.2660   -2.7219 C   0  0  0  0  0  0  0  0  0  0  0  0
    2.1399   -1.1940   -2.4057 C   0  0  0  0  0  0  0  0  0  0  0  0
    2.1405   -1.6309   -0.9557 C   0  0  0  0  0  0  0  0  0  0  0  0
    3.1406   -1.4755    0.1150 C   0  0  0  0  0  0  0  0  0  0  0  0
    4.4387   -2.0605   -0.0051 O   0  0  0  0  0  0  0  0  0  0  0  0
    3.1190   -0.0219    0.7094 C   0  0  0  0  0  0  0  0  0  0  0  0
    2.0164   -0.3182    1.6794 C   0  0  0  0  0  0  0  0  0  0  0  0
    1.5696    1.0296    2.1424 C   0  0  0  0  0  0  0  0  0  0  0  0
    0.8385    1.2284    3.1019 O   0  0  0  0  0  0  0  0  0  0  0  0
    2.1176    2.1031    1.2798 C   0  0  0  0  0  0  0  0  0  0  0  0
    2.3564    1.2232    0.0288 C   0  0  0  0  0  0  0  0  0  0  0  0
    3.2786    1.9561   -0.7685 O   0  0  0  0  0  0  0  0  0  0  0  0
    0.8221    1.0670   -0.6524 C   0  0  0  0  0  0  0  0  0  0  0  0
   -0.3186    0.1311    0.1070 C   0  0  0  0  0  0  0  0  0  0  0  0
   -0.0430   -1.4001    0.1200 C   0  0  0  0  0  0  0  0  0  0  0  0
    0.3694   -2.8257    0.7118 C   0  0  0  0  0  0  0  0  0  0  0  0
   -0.4105   -3.3164    1.8800 C   0  0  0  0  0  0  0  0  0  0  0  0
   -1.5645   -2.7424    2.2607 C   0  0  0  0  0  0  0  0  0  0  0  0
   -2.5053   -3.3364    3.2153 C   0  0  0  0  0  0  0  0  0  0  0  0
   -3.6808   -4.0482    2.5737 C   0  0  0  0  0  0  0  0  0  0  0  0
   -3.9042   -2.8048    3.3855 C   0  0  0  0  0  0  0  0  0  0  0  0
    1.9033   -2.4652    0.9799 C   0  0  0  0  0  0  0  0  0  0  0  0
    1.3420   -1.1269    0.5444 C   0  0  0  0  0  0  0  0  0  0  0  0
   -4.0053    4.8455   -1.0493 H   0  0  0  0  0  0  0  0  0  0  0  0
   -2.7088    4.8549    0.1622 H   0  0  0  0  0  0  0  0  0  0  0  0
   -4.2112    3.9732    0.4736 H   0  0  0  0  0  0  0  0  0  0  0  0
   -2.4789    2.3596   -0.1244 H   0  0  0  0  0  0  0  0  0  0  0  0
   -3.6954    2.4103   -1.4042 H   0  0  0  0  0  0  0  0  0  0  0  0
   -0.9509    3.7764   -1.4015 H   0  0  0  0  0  0  0  0  0  0  0  0
   -2.1621    4.0651   -2.6411 H   0  0  0  0  0  0  0  0  0  0  0  0
   -1.7802    2.1518   -3.7291 H   0  0  0  0  0  0  0  0  0  0  0  0
   -1.7614    1.1599   -2.3152 H   0  0  0  0  0  0  0  0  0  0  0  0
    0.7212    2.8831   -2.6923 H   0  0  0  0  0  0  0  0  0  0  0  0
    0.3430    1.7390   -3.9624 H   0  0  0  0  0  0  0  0  0  0  0  0
    1.8514    0.2990   -3.8164 H   0  0  0  0  0  0  0  0  0  0  0  0
    2.8738    0.8110   -2.5565 H   0  0  0  0  0  0  0  0  0  0  0  0
    1.3371   -1.7444   -2.9260 H   0  0  0  0  0  0  0  0  0  0  0  0
    3.0709   -1.5321   -2.8866 H   0  0  0  0  0  0  0  0  0  0  0  0
    2.0571   -2.7209   -1.1638 H   0  0  0  0  0  0  0  0  0  0  0  0
    4.9206   -1.4882   -0.6292 H   0  0  0  0  0  0  0  0  0  0  0  0
    4.0719    0.2576    1.1760 H   0  0  0  0  0  0  0  0  0  0  0  0
    2.3808   -0.8542    2.5679 H   0  0  0  0  0  0  0  0  0  0  0  0
    3.0439    2.5011    1.7069 H   0  0  0  0  0  0  0  0  0  0  0  0
    1.4093    2.9206    1.1184 H   0  0  0  0  0  0  0  0  0  0  0  0
    2.7534    2.4737   -1.4105 H   0  0  0  0  0  0  0  0  0  0  0  0
    0.4037    2.0747   -0.5173 H   0  0  0  0  0  0  0  0  0  0  0  0
   -1.2641    0.2819   -0.4307 H   0  0  0  0  0  0  0  0  0  0  0  0
   -0.5439    0.5089    1.1115 H   0  0  0  0  0  0  0  0  0  0  0  0
   -0.2569   -1.6279   -0.9413 H   0  0  0  0  0  0  0  0  0  0  0  0
    0.2869   -3.6084   -0.0582 H   0  0  0  0  0  0  0  0  0  0  0  0
   -0.1118   -4.2594    2.3278 H   0  0  0  0  0  0  0  0  0  0  0  0
   -1.9035   -1.8293    1.7766 H   0  0  0  0  0  0  0  0  0  0  0  0
   -2.0462   -3.7840    4.0889 H   0  0  0  0  0  0  0  0  0  0  0  0
   -3.8247   -3.9678    1.5014 H   0  0  0  0  0  0  0  0  0  0  0  0
   -3.9809   -4.9988    2.9926 H   0  0  0  0  0  0  0  0  0  0  0  0
   -4.4191   -2.9520    4.3284 H   0  0  0  0  0  0  0  0  0  0  0  0
   -4.1761   -1.8885    2.8774 H   0  0  0  0  0  0  0  0  0  0  0  0
    2.1954   -2.7111    2.0078 H   0  0  0  0  0  0  0  0  0  0  0  0
  2  1  1  0  0  0  0
  3  2  1  0  0  0  0
  4  3  1  0  0  0  0
  5  4  1  0  0  0  0
  6  5  1  0  0  0  0
  7  6  1  0  0  0  0
  8  7  1  0  0  0  0
  9  8  1  0  0  0  0
 10  9  1  0  0  0  0
 11 10  1  0  0  0  0
 12 10  1  0  0  0  0
 13 12  1  0  0  0  0
 14 13  1  0  0  0  0
 15 14  2  0  0  0  0
 16 14  1  0  0  0  0
 17 16  1  0  0  0  0
 17 12  1  0  0  0  0
 18 17  1  0  0  0  0
 19 17  1  0  0  0  0
 19  6  1  0  0  0  0
 20 19  1  0  0  0  0
 21 20  1  0  0  0  0
 22 21  1  0  0  0  0
 23 22  1  0  0  0  0
 24 23  2  0  0  0  0
 25 24  1  0  0  0  0
 26 25  1  0  0  0  0
 27 26  1  0  0  0  0
 27 25  1  0  0  0  0
 28 22  1  0  0  0  0
 28 10  1  0  0  0  0
 29 28  1  0  0  0  0
 29 21  1  0  0  0  0
 29 13  1  0  0  0  0
 29  9  1  0  0  0  0
  1 30  1  0  0  0  0
  1 31  1  0  0  0  0
  1 32  1  0  0  0  0
  2 33  1  0  0  0  0
  2 34  1  0  0  0  0
  3 35  1  0  0  0  0
  3 36  1  0  0  0  0
  4 37  1  0  0  0  0
  4 38  1  0  0  0  0
  5 39  1  0  0  0  0
  5 40  1  0  0  0  0
  7 41  1  0  0  0  0
  7 42  1  0  0  0  0
  8 43  1  0  0  0  0
  8 44  1  0  0  0  0
  9 45  1  0  0  0  0
 11 46  1  0  0  0  0
 12 47  1  0  0  0  0
 13 48  1  0  0  0  0
 16 49  1  0  0  0  0
 16 50  1  0  0  0  0
 18 51  1  0  0  0  0
 19 52  1  0  0  0  0
 20 53  1  0  0  0  0
 20 54  1  0  0  0  0
 21 55  1  0  0  0  0
 22 56  1  0  0  0  0
 23 57  1  0  0  0  0
 24 58  1  0  0  0  0
 25 59  1  0  0  0  0
 26 60  1  0  0  0  0
 26 61  1  0  0  0  0
 27 62  1  0  0  0  0
 27 63  1  0  0  0  0
 28 64  1  0  0  0  0
M  END
>  <energy>
306.63603842165054

$$$$
