CC=C1c2[nH]c3c(C)c2CC2C3CCC2C1CCF
                    3D

 41 44  0  0  0  0  0  0  0  0999 V2000
    3.2077   -1.4000   -1.1619 C   0  0  0  0  0  0  0  0  0  0  0  0
    2.5149   -0.1220   -0.7965 C   0  0  0  0  0  0  0  0  0  0  0  0
    1.2644    0.0451   -0.3138 C   0  0  0  0  0  0  0  0  0  0  0  0
    0.4340   -1.1022   -0.2417 C   0  0  0  0  0  0  0  0  0  0  0  0
   -0.2430   -1.3285    0.9683 N   0  0  0  0  0  0  0  0  0  0  0  0
   -1.5878   -1.4516    0.5439 C   0  0  0  0  0  0  0  0  0  0  0  0
   -1.3116   -2.4174   -0.4324 C   0  0  0  0  0  0  0  0  0  0  0  0
   -1.2411   -3.8944   -0.3173 C   0  0  0  0  0  0  0  0  0  0  0  0
   -0.4968   -1.5384   -1.2067 C   0  0  0  0  0  0  0  0  0  0  0  0
   -1.1007   -0.4362   -2.0516 C   0  0  0  0  0  0  0  0  0  0  0  0
   -1.7441    0.5617   -1.0526 C   0  0  0  0  0  0  0  0  0  0  0  0
   -2.3660   -0.1529    0.2130 C   0  0  0  0  0  0  0  0  0  0  0  0
   -2.3271    0.8895    1.3327 C   0  0  0  0  0  0  0  0  0  0  0  0
   -1.7743    2.1604    0.6916 C   0  0  0  0  0  0  0  0  0  0  0  0
   -0.8452    1.6943   -0.4508 C   0  0  0  0  0  0  0  0  0  0  0  0
    0.6927    1.4550   -0.0698 C   0  0  0  0  0  0  0  0  0  0  0  0
    1.0696    1.9848    1.3395 C   0  0  0  0  0  0  0  0  0  0  0  0
    2.5562    1.9793    1.6678 C   0  0  0  0  0  0  0  0  0  0  0  0
    3.2236    2.7223    0.7455 F   0  0  0  0  0  0  0  0  0  0  0  0
    3.3955   -1.4231   -2.2395 H   0  0  0  0  0  0  0  0  0  0  0  0
    4.1729   -1.4493   -0.6474 H   0  0  0  0  0  0  0  0  0  0  0  0
    2.6460   -2.2977   -0.8907 H   0  0  0  0  0  0  0  0  0  0  0  0
    3.1297    0.7648   -0.9520 H   0  0  0  0  0  0  0  0  0  0  0  0
    0.1687   -1.8941    1.6958 H   0  0  0  0  0  0  0  0  0  0  0  0
   -1.3439   -4.2167    0.7239 H   0  0  0  0  0  0  0  0  0  0  0  0
   -2.0511   -4.3487   -0.8962 H   0  0  0  0  0  0  0  0  0  0  0  0
   -0.2898   -4.2765   -0.7006 H   0  0  0  0  0  0  0  0  0  0  0  0
   -0.3594    0.0483   -2.6950 H   0  0  0  0  0  0  0  0  0  0  0  0
   -1.8739   -0.8700   -2.6972 H   0  0  0  0  0  0  0  0  0  0  0  0
   -2.5625    1.0691   -1.5855 H   0  0  0  0  0  0  0  0  0  0  0  0
   -3.4022   -0.4422   -0.0047 H   0  0  0  0  0  0  0  0  0  0  0  0
   -1.7041    0.5802    2.1779 H   0  0  0  0  0  0  0  0  0  0  0  0
   -3.3308    1.0741    1.7321 H   0  0  0  0  0  0  0  0  0  0  0  0
   -2.6129    2.7205    0.2537 H   0  0  0  0  0  0  0  0  0  0  0  0
   -1.3293    2.8336    1.4252 H   0  0  0  0  0  0  0  0  0  0  0  0
   -0.8199    2.5063   -1.1928 H   0  0  0  0  0  0  0  0  0  0  0  0
    1.2305    2.1111   -0.7737 H   0  0  0  0  0  0  0  0  0  0  0  0
    0.5440    1.4168    2.1144 H   0  0  0  0  0  0  0  0  0  0  0  0
    0.7516    3.0317    1.4074 H   0  0  0  0  0  0  0  0  0  0  0  0
    2.9867    0.9753    1.6917 H   0  0  0  0  0  0  0  0  0  0  0  0
    2.7287    2.4381    2.6462 H   0  0  0  0  0  0  0  0  0  0  0  0
  2  1  1  0  0  0  0
  3  2  2  0  0  0  0
  4  3  1  0  0  0  0
  5  4  1  0  0  0  0
  6  5  1  0  0  0  0
  7  6  2  0  0  0  0
  8  7  1  0  0  0  0
  9  7  1  0  0  0  0
  9  4  2  0  0  0  0
 10  9  1  0  0  0  0
 11 10  1  0  0  0  0
 12 11  1  0  0  0  0
 12  6  1  0  0  0  0
 13 12  1  0  0  0  0
 14 13  1  0  0  0  0
 15 14  1  0  0  0  0
 15 11  1  0  0  0  0
 16 15  1  0  0  0  0
 16  3  1  0  0  0  0
 17 16  1  0  0  0  0
 18 17  1  0  0  0  0
 19 18  1  0  0  0  0
  1 20  1  0  0  0  0
  1 21  1  0  0  0  0
  1 22  1  0  0  0  0
  2 23  1  0  0  0  0
  5 24  1  0  0  0  0
  8 25  1  0  0  0  0
  8 26  1  0  0  0  0
  8 27  1  0  0  0  0
 10 28  1  0  0  0  0
 10 29  1  0  0  0  0
 11 30  1  0  0  0  0
 12 31  1  0  0  0  0
 13 32  1  0  0  0  0
 13 33  1  0  0  0  0
 14 34  1  0  0  0  0
 14 35  1  0  0  0  0
 15 36  1  0  0  0  0
 16 37  1  0  0  0  0
 17 38  1  0  0  0  0
 17 39  1  0  0  0  0
 18 40  1  0  0  0  0
 18 41  1  0  0  0  0
M  END
>  <energy>
162.95195785417556

$$$$
