Cc1[nH]cc(CCC2CC34C(C)C2C3C(F)C4F)c1C
                    3D

 43 46  0  0  0  0  0  0  0  0999 V2000
    4.5808   -0.8533   -1.6482 C   0  0  0  0  0  0  0  0  0  0  0  0
    3.7584   -0.5470   -0.4490 C   0  0  0  0  0  0  0  0  0  0  0  0
    3.9065   -1.2649    0.7092 N   0  0  0  0  0  0  0  0  0  0  0  0
    3.0439   -0.7913    1.6558 C   0  0  0  0  0  0  0  0  0  0  0  0
    2.3096    0.2442    1.1090 C   0  0  0  0  0  0  0  0  0  0  0  0
    1.2467    1.0170    1.8359 C   0  0  0  0  0  0  0  0  0  0  0  0
    0.0088    0.1671    2.1716 C   0  0  0  0  0  0  0  0  0  0  0  0
   -1.2666    0.6733    1.4979 C   0  0  0  0  0  0  0  0  0  0  0  0
   -2.5169   -0.2210    1.7671 C   0  0  0  0  0  0  0  0  0  0  0  0
   -2.9338   -0.4238    0.3200 C   0  0  0  0  0  0  0  0  0  0  0  0
   -2.7136    0.9626   -0.3893 C   0  0  0  0  0  0  0  0  0  0  0  0
   -3.0131    1.4283   -1.8044 C   0  0  0  0  0  0  0  0  0  0  0  0
   -1.2487    0.5851   -0.0552 C   0  0  0  0  0  0  0  0  0  0  0  0
   -1.5869   -0.9041   -0.3071 C   0  0  0  0  0  0  0  0  0  0  0  0
   -2.4009   -1.5522   -1.4354 C   0  0  0  0  0  0  0  0  0  0  0  0
   -2.0087   -2.8121   -1.7574 F   0  0  0  0  0  0  0  0  0  0  0  0
   -3.6576   -1.4869   -0.5082 C   0  0  0  0  0  0  0  0  0  0  0  0
   -4.8115   -1.0983   -1.0986 F   0  0  0  0  0  0  0  0  0  0  0  0
    2.7865    0.4199   -0.2344 C   0  0  0  0  0  0  0  0  0  0  0  0
    2.3424    1.4313   -1.2340 C   0  0  0  0  0  0  0  0  0  0  0  0
    4.0704   -0.5456   -2.5660 H   0  0  0  0  0  0  0  0  0  0  0  0
    4.7812   -1.9271   -1.7248 H   0  0  0  0  0  0  0  0  0  0  0  0
    5.5391   -0.3269   -1.5947 H   0  0  0  0  0  0  0  0  0  0  0  0
    4.5554   -2.0286    0.8432 H   0  0  0  0  0  0  0  0  0  0  0  0
    3.0136   -1.2349    2.6425 H   0  0  0  0  0  0  0  0  0  0  0  0
    0.9671    1.9152    1.2764 H   0  0  0  0  0  0  0  0  0  0  0  0
    1.6847    1.3800    2.7752 H   0  0  0  0  0  0  0  0  0  0  0  0
    0.1804   -0.8901    1.9431 H   0  0  0  0  0  0  0  0  0  0  0  0
   -0.1539    0.2147    3.2570 H   0  0  0  0  0  0  0  0  0  0  0  0
   -1.4587    1.7034    1.8253 H   0  0  0  0  0  0  0  0  0  0  0  0
   -3.2769    0.3100    2.3484 H   0  0  0  0  0  0  0  0  0  0  0  0
   -2.2719   -1.1606    2.2718 H   0  0  0  0  0  0  0  0  0  0  0  0
   -3.1257    1.7758    0.2322 H   0  0  0  0  0  0  0  0  0  0  0  0
   -4.0467    1.2004   -2.0781 H   0  0  0  0  0  0  0  0  0  0  0  0
   -2.8883    2.5153   -1.8718 H   0  0  0  0  0  0  0  0  0  0  0  0
   -2.3386    1.0081   -2.5528 H   0  0  0  0  0  0  0  0  0  0  0  0
   -0.4523    1.0672   -0.6162 H   0  0  0  0  0  0  0  0  0  0  0  0
   -0.9963   -1.6451    0.2424 H   0  0  0  0  0  0  0  0  0  0  0  0
   -2.4990   -0.9724   -2.3523 H   0  0  0  0  0  0  0  0  0  0  0  0
   -3.8012   -2.4160    0.0578 H   0  0  0  0  0  0  0  0  0  0  0  0
    3.1992    1.8276   -1.7896 H   0  0  0  0  0  0  0  0  0  0  0  0
    1.6526    0.9745   -1.9513 H   0  0  0  0  0  0  0  0  0  0  0  0
    1.8406    2.2810   -0.7630 H   0  0  0  0  0  0  0  0  0  0  0  0
  2  1  1  0  0  0  0
  3  2  1  0  0  0  0
  4  3  1  0  0  0  0
  5  4  2  0  0  0  0
  6  5  1  0  0  0  0
  7  6  1  0  0  0  0
  8  7  1  0  0  0  0
  9  8  1  0  0  0  0
 10  9  1  0  0  0  0
 11 10  1  0  0  0  0
 12 11  1  0  0  0  0
 13 11  1  0  0  0  0
 13  8  1  0  0  0  0
 14 13  1  0  0  0  0
 14 10  1  0  0  0  0
 15 14  1  0  0  0  0
 16 15  1  0  0  0  0
 17 15  1  0  0  0  0
 17 10  1  0  0  0  0
 18 17  1  0  0  0  0
 19  5  1  0  0  0  0
 19  2  2  0  0  0  0
 20 19  1  0  0  0  0
  1 21  1  0  0  0  0
  1 22  1  0  0  0  0
  1 23  1  0  0  0  0
  3 24  1  0  0  0  0
  4 25  1  0  0  0  0
  6 26  1  0  0  0  0
  6 27  1  0  0  0  0
  7 28  1  0  0  0  0
  7 29  1  0  0  0  0
  8 30  1  0  0  0  0
  9 31  1  0  0  0  0
  9 32  1  0  0  0  0
 11 33  1  0  0  0  0
 12 34  1  0  0  0  0
 12 35  1  0  0  0  0
 12 36  1  0  0  0  0
 13 37  1  0  0  0  0
 14 38  1  0  0  0  0
 15 39  1  0  0  0  0
 17 40  1  0  0  0  0
 20 41  1  0  0  0  0
 20 42  1  0  0  0  0
 20 43  1  0  0  0  0
M  END
>  <energy>
86.850778620270603

$$$$
