CC(C)=CC12CC3C4C1C1C2OC4(C)C31CO
                    3D

 37 41  0  0  0  0  0  0  0  0999 V2000
   -4.3676    1.3897   -1.2503 C   0  0  0  0  0  0  0  0  0  0  0  0
   -3.2386    0.7053   -0.5263 C   0  0  0  0  0  0  0  0  0  0  0  0
   -3.6676   -0.1254    0.6532 C   0  0  0  0  0  0  0  0  0  0  0  0
   -1.9673    0.8543   -0.9394 C   0  0  0  0  0  0  0  0  0  0  0  0
   -0.8494    0.1926   -0.2359 C   0  0  0  0  0  0  0  0  0  0  0  0
   -0.5085   -1.4857   -0.8347 C   0  0  0  0  0  0  0  0  0  0  0  0
    1.2914   -1.6434   -0.5779 C   0  0  0  0  0  0  0  0  0  0  0  0
    0.6828   -1.0783    0.5555 C   0  0  0  0  0  0  0  0  0  0  0  0
    0.3669    0.0750   -0.9262 C   0  0  0  0  0  0  0  0  0  0  0  0
    1.3007    1.0995   -0.5128 C   0  0  0  0  0  0  0  0  0  0  0  0
    0.2736    1.3228    0.6472 C   0  0  0  0  0  0  0  0  0  0  0  0
    0.9880    0.8271    1.8347 O   0  0  0  0  0  0  0  0  0  0  0  0
    1.7402   -0.3137    1.2899 C   0  0  0  0  0  0  0  0  0  0  0  0
    2.5524   -1.0132    2.3478 C   0  0  0  0  0  0  0  0  0  0  0  0
    2.2908   -0.1333   -0.1589 C   0  0  0  0  0  0  0  0  0  0  0  0
    3.7495   -0.0940   -0.4917 C   0  0  0  0  0  0  0  0  0  0  0  0
    4.3721    0.9998    0.1664 O   0  0  0  0  0  0  0  0  0  0  0  0
   -4.0162    1.9913   -2.0951 H   0  0  0  0  0  0  0  0  0  0  0  0
   -4.9067    2.0569   -0.5699 H   0  0  0  0  0  0  0  0  0  0  0  0
   -5.0725    0.6492   -1.6412 H   0  0  0  0  0  0  0  0  0  0  0  0
   -4.3506   -0.9154    0.3240 H   0  0  0  0  0  0  0  0  0  0  0  0
   -2.8312   -0.6053    1.1687 H   0  0  0  0  0  0  0  0  0  0  0  0
   -4.1897    0.4989    1.3858 H   0  0  0  0  0  0  0  0  0  0  0  0
   -1.7393    1.4775   -1.8013 H   0  0  0  0  0  0  0  0  0  0  0  0
   -1.0927   -2.2295   -0.2619 H   0  0  0  0  0  0  0  0  0  0  0  0
   -0.7485   -1.6175   -1.9078 H   0  0  0  0  0  0  0  0  0  0  0  0
    1.6610   -2.6551   -0.4040 H   0  0  0  0  0  0  0  0  0  0  0  0
   -0.0281   -1.5978    1.2169 H   0  0  0  0  0  0  0  0  0  0  0  0
    0.4535   -0.0896   -2.0232 H   0  0  0  0  0  0  0  0  0  0  0  0
    1.5523    1.8789   -1.2270 H   0  0  0  0  0  0  0  0  0  0  0  0
   -0.0987    2.3425    0.7795 H   0  0  0  0  0  0  0  0  0  0  0  0
    3.0156   -1.9266    1.9610 H   0  0  0  0  0  0  0  0  0  0  0  0
    1.9303   -1.2941    3.2040 H   0  0  0  0  0  0  0  0  0  0  0  0
    3.3533   -0.3636    2.7154 H   0  0  0  0  0  0  0  0  0  0  0  0
    3.9103    0.0121   -1.5693 H   0  0  0  0  0  0  0  0  0  0  0  0
    4.2549   -1.0099   -0.1699 H   0  0  0  0  0  0  0  0  0  0  0  0
    3.9338    1.8181   -0.1254 H   0  0  0  0  0  0  0  0  0  0  0  0
  2  1  1  0  0  0  0
  3  2  1  0  0  0  0
  4  2  2  0  0  0  0
  5  4  1  0  0  0  0
  6  5  1  0  0  0  0
  7  6  1  0  0  0  0
  8  7  1  0  0  0  0
  9  8  1  0  0  0  0
  9  5  1  0  0  0  0
 10  9  1  0  0  0  0
 11 10  1  0  0  0  0
 11  5  1  0  0  0  0
 12 11  1  0  0  0  0
 13 12  1  0  0  0  0
 13  8  1  0  0  0  0
 14 13  1  0  0  0  0
 15 13  1  0  0  0  0
 15  7  1  0  0  0  0
 15 10  1  0  0  0  0
 16 15  1  0  0  0  0
 17 16  1  0  0  0  0
  1 18  1  0  0  0  0
  1 19  1  0  0  0  0
  1 20  1  0  0  0  0
  3 21  1  0  0  0  0
  3 22  1  0  0  0  0
  3 23  1  0  0  0  0
  4 24  1  0  0  0  0
  6 25  1  0  0  0  0
  6 26  1  0  0  0  0
  7 27  1  0  0  0  0
  8 28  1  0  0  0  0
  9 29  1  0  0  0  0
 10 30  1  0  0  0  0
 11 31  1  0  0  0  0
 14 32  1  0  0  0  0
 14 33  1  0  0  0  0
 14 34  1  0  0  0  0
 16 35  1  0  0  0  0
 16 36  1  0  0  0  0
 17 37  1  0  0  0  0
M  END
>  <energy>
344.02416511698391

$$$$
