N=c1[nH]c2c(c(=O)[nH]1)NC1C(O2)C2(C3NN2N3)C1(O)CO[N+](=O)[O-]
                    3D

 36 40  0  0  0  0  0  0  0  0999 V2000
   -5.4361    0.4972   -1.2752 N   0  0  0  0  0  0  0  0  0  0  0  0
   -4.3026    0.5320   -0.6760 C   0  0  0  0  0  0  0  0  0  0  0  0
   -3.2003   -0.1862   -1.0056 N   0  0  0  0  0  0  0  0  0  0  0  0
   -2.0318   -0.1214   -0.2967 C   0  0  0  0  0  0  0  0  0  0  0  0
   -1.8851    0.6921    0.7673 C   0  0  0  0  0  0  0  0  0  0  0  0
   -3.0916    1.4987    1.1764 C   0  0  0  0  0  0  0  0  0  0  0  0
   -3.0507    2.2123    2.1767 O   0  0  0  0  0  0  0  0  0  0  0  0
   -4.2134    1.3669    0.3979 N   0  0  0  0  0  0  0  0  0  0  0  0
   -0.7122    0.7938    1.5047 N   0  0  0  0  0  0  0  0  0  0  0  0
    0.2039   -0.3112    1.4746 C   0  0  0  0  0  0  0  0  0  0  0  0
   -0.0939   -1.3347    0.3140 C   0  0  0  0  0  0  0  0  0  0  0  0
   -0.9868   -0.9124   -0.7569 O   0  0  0  0  0  0  0  0  0  0  0  0
    1.3901   -1.2839    0.0529 C   0  0  0  0  0  0  0  0  0  0  0  0
    2.3105   -2.5060    0.1488 C   0  0  0  0  0  0  0  0  0  0  0  0
    3.1935   -1.7140   -0.7636 N   0  0  0  0  0  0  0  0  0  0  0  0
    1.8614   -1.4296   -1.3730 N   0  0  0  0  0  0  0  0  0  0  0  0
    1.6818   -2.8992   -1.1545 N   0  0  0  0  0  0  0  0  0  0  0  0
    1.6212   -0.0034    0.8343 C   0  0  0  0  0  0  0  0  0  0  0  0
    2.6761   -0.0257    1.8432 O   0  0  0  0  0  0  0  0  0  0  0  0
    1.7398    1.2657   -0.0317 C   0  0  0  0  0  0  0  0  0  0  0  0
    3.0852    1.3616   -0.5026 O   0  0  0  0  0  0  0  0  0  0  0  0
    3.2766    2.4181   -1.4167 N   0  3  0  0  0  0  0  0  0  0  0  0
    2.3304    3.1864   -1.5984 O   0  0  0  0  0  0  0  0  0  0  0  0
    4.4093    2.4383   -1.8942 O   0  5  0  0  0  0  0  0  0  0  0  0
   -5.3972   -0.1632   -2.0554 H   0  0  0  0  0  0  0  0  0  0  0  0
   -3.1871   -0.7904   -1.8145 H   0  0  0  0  0  0  0  0  0  0  0  0
   -5.0379    1.8906    0.6477 H   0  0  0  0  0  0  0  0  0  0  0  0
   -0.8897    1.2244    2.4176 H   0  0  0  0  0  0  0  0  0  0  0  0
    0.2599   -0.7918    2.4608 H   0  0  0  0  0  0  0  0  0  0  0  0
   -0.4407   -2.3003    0.7053 H   0  0  0  0  0  0  0  0  0  0  0  0
    2.6321   -3.1797    0.9295 H   0  0  0  0  0  0  0  0  0  0  0  0
    3.7700   -2.2490   -1.4071 H   0  0  0  0  0  0  0  0  0  0  0  0
    2.2881   -3.4144   -1.7881 H   0  0  0  0  0  0  0  0  0  0  0  0
    2.6730    0.8619    2.2439 H   0  0  0  0  0  0  0  0  0  0  0  0
    1.5208    2.1452    0.5854 H   0  0  0  0  0  0  0  0  0  0  0  0
    1.0333    1.2313   -0.8707 H   0  0  0  0  0  0  0  0  0  0  0  0
  2  1  2  0  0  0  0
  3  2  1  0  0  0  0
  4  3  1  0  0  0  0
  5  4  2  0  0  0  0
  6  5  1  0  0  0  0
  7  6  2  0  0  0  0
  8  6  1  0  0  0  0
  8  2  1  0  0  0  0
  9  5  1  0  0  0  0
 10  9  1  0  0  0  0
 11 10  1  0  0  0  0
 12 11  1  0  0  0  0
 12  4  1  0  0  0  0
 13 11  1  0  0  0  0
 14 13  1  0  0  0  0
 15 14  1  0  0  0  0
 16 15  1  0  0  0  0
 16 13  1  0  0  0  0
 17 16  1  0  0  0  0
 17 14  1  0  0  0  0
 18 13  1  0  0  0  0
 18 10  1  0  0  0  0
 19 18  1  0  0  0  0
 20 18  1  0  0  0  0
 21 20  1  0  0  0  0
 22 21  1  0  0  0  0
 23 22  2  0  0  0  0
 24 22  1  0  0  0  0
  1 25  1  0  0  0  0
  3 26  1  0  0  0  0
  8 27  1  0  0  0  0
  9 28  1  0  0  0  0
 10 29  1  0  0  0  0
 11 30  1  0  0  0  0
 14 31  1  0  0  0  0
 15 32  1  0  0  0  0
 17 33  1  0  0  0  0
 19 34  1  0  0  0  0
 20 35  1  0  0  0  0
 20 36  1  0  0  0  0
M  CHG  2  22   1  24  -1
M  END
>  <energy>
24.959617408830496

$$$$
