COC1CC(O)C2C34CCC(C(C)OC(C)C(O)C3C)C12O4
                    3D

 50 53  0  0  0  0  0  0  0  0999 V2000
   -3.5433   -2.8982   -0.9531 C   0  0  0  0  0  0  0  0  0  0  0  0
   -3.0664   -1.5609   -0.9171 O   0  0  0  0  0  0  0  0  0  0  0  0
   -2.1663   -1.3308    0.1678 C   0  0  0  0  0  0  0  0  0  0  0  0
   -2.8592   -0.5190    1.2727 C   0  0  0  0  0  0  0  0  0  0  0  0
   -2.7135    0.9659    0.8998 C   0  0  0  0  0  0  0  0  0  0  0  0
   -3.9348    1.4740    0.3673 O   0  0  0  0  0  0  0  0  0  0  0  0
   -1.6315    1.0626   -0.1696 C   0  0  0  0  0  0  0  0  0  0  0  0
   -0.0935    1.3226    0.1508 C   0  0  0  0  0  0  0  0  0  0  0  0
    0.4947    1.5353   -1.2846 C   0  0  0  0  0  0  0  0  0  0  0  0
    0.2498    0.3580   -2.2156 C   0  0  0  0  0  0  0  0  0  0  0  0
   -0.0950   -0.8953   -1.4179 C   0  0  0  0  0  0  0  0  0  0  0  0
    1.2262   -1.5987   -0.8780 C   0  0  0  0  0  0  0  0  0  0  0  0
    0.9312   -3.0683   -0.5665 C   0  0  0  0  0  0  0  0  0  0  0  0
    1.8395   -1.0859    0.3286 O   0  0  0  0  0  0  0  0  0  0  0  0
    2.6537    0.0901    0.2539 C   0  0  0  0  0  0  0  0  0  0  0  0
    4.0663   -0.3953    0.6223 C   0  0  0  0  0  0  0  0  0  0  0  0
    2.2261    1.3003    1.2321 C   0  0  0  0  0  0  0  0  0  0  0  0
    3.2184    2.3383    1.1211 O   0  0  0  0  0  0  0  0  0  0  0  0
    0.7818    2.0027    1.1832 C   0  0  0  0  0  0  0  0  0  0  0  0
    0.7773    3.5182    0.9965 C   0  0  0  0  0  0  0  0  0  0  0  0
   -1.0560   -0.4178   -0.3122 C   0  0  0  0  0  0  0  0  0  0  0  0
   -0.1734   -0.0332    0.7558 O   0  0  0  0  0  0  0  0  0  0  0  0
   -4.2662   -2.9806   -1.7698 H   0  0  0  0  0  0  0  0  0  0  0  0
   -4.0371   -3.1576   -0.0114 H   0  0  0  0  0  0  0  0  0  0  0  0
   -2.7147   -3.5868   -1.1491 H   0  0  0  0  0  0  0  0  0  0  0  0
   -1.7772   -2.2716    0.5682 H   0  0  0  0  0  0  0  0  0  0  0  0
   -3.9032   -0.8161    1.4133 H   0  0  0  0  0  0  0  0  0  0  0  0
   -2.3225   -0.6877    2.2151 H   0  0  0  0  0  0  0  0  0  0  0  0
   -2.4639    1.5716    1.7773 H   0  0  0  0  0  0  0  0  0  0  0  0
   -4.6228    1.3557    1.0431 H   0  0  0  0  0  0  0  0  0  0  0  0
   -2.0077    1.4949   -1.1039 H   0  0  0  0  0  0  0  0  0  0  0  0
    1.5478    1.8148   -1.2865 H   0  0  0  0  0  0  0  0  0  0  0  0
    0.0242    2.4280   -1.7228 H   0  0  0  0  0  0  0  0  0  0  0  0
    1.0954    0.2042   -2.8948 H   0  0  0  0  0  0  0  0  0  0  0  0
   -0.6041    0.6044   -2.8612 H   0  0  0  0  0  0  0  0  0  0  0  0
   -0.6030   -1.5819   -2.1065 H   0  0  0  0  0  0  0  0  0  0  0  0
    1.9845   -1.5924   -1.6713 H   0  0  0  0  0  0  0  0  0  0  0  0
    0.2838   -3.1663    0.3096 H   0  0  0  0  0  0  0  0  0  0  0  0
    0.4668   -3.5786   -1.4150 H   0  0  0  0  0  0  0  0  0  0  0  0
    1.8604   -3.5938   -0.3189 H   0  0  0  0  0  0  0  0  0  0  0  0
    2.7549    0.4270   -0.7782 H   0  0  0  0  0  0  0  0  0  0  0  0
    4.8179    0.3860    0.4781 H   0  0  0  0  0  0  0  0  0  0  0  0
    4.3497   -1.2508   -0.0017 H   0  0  0  0  0  0  0  0  0  0  0  0
    4.1045   -0.7396    1.6617 H   0  0  0  0  0  0  0  0  0  0  0  0
    2.3044    0.9045    2.2547 H   0  0  0  0  0  0  0  0  0  0  0  0
    3.9585    2.0869    1.6984 H   0  0  0  0  0  0  0  0  0  0  0  0
    0.3335    1.8296    2.1729 H   0  0  0  0  0  0  0  0  0  0  0  0
   -0.2504    3.8976    0.9841 H   0  0  0  0  0  0  0  0  0  0  0  0
    1.2506    3.8222    0.0585 H   0  0  0  0  0  0  0  0  0  0  0  0
    1.3036    4.0122    1.8189 H   0  0  0  0  0  0  0  0  0  0  0  0
  2  1  1  0  0  0  0
  3  2  1  0  0  0  0
  4  3  1  0  0  0  0
  5  4  1  0  0  0  0
  6  5  1  0  0  0  0
  7  5  1  0  0  0  0
  8  7  1  0  0  0  0
  9  8  1  0  0  0  0
 10  9  1  0  0  0  0
 11 10  1  0  0  0  0
 12 11  1  0  0  0  0
 13 12  1  0  0  0  0
 14 12  1  0  0  0  0
 15 14  1  0  0  0  0
 16 15  1  0  0  0  0
 17 15  1  0  0  0  0
 18 17  1  0  0  0  0
 19 17  1  0  0  0  0
 19  8  1  0  0  0  0
 20 19  1  0  0  0  0
 21 11  1  0  0  0  0
 21  3  1  0  0  0  0
 21  7  1  0  0  0  0
 22 21  1  0  0  0  0
 22  8  1  0  0  0  0
  1 23  1  0  0  0  0
  1 24  1  0  0  0  0
  1 25  1  0  0  0  0
  3 26  1  0  0  0  0
  4 27  1  0  0  0  0
  4 28  1  0  0  0  0
  5 29  1  0  0  0  0
  6 30  1  0  0  0  0
  7 31  1  0  0  0  0
  9 32  1  0  0  0  0
  9 33  1  0  0  0  0
 10 34  1  0  0  0  0
 10 35  1  0  0  0  0
 11 36  1  0  0  0  0
 12 37  1  0  0  0  0
 13 38  1  0  0  0  0
 13 39  1  0  0  0  0
 13 40  1  0  0  0  0
 15 41  1  0  0  0  0
 16 42  1  0  0  0  0
 16 43  1  0  0  0  0
 16 44  1  0  0  0  0
 17 45  1  0  0  0  0
 18 46  1  0  0  0  0
 19 47  1  0  0  0  0
 20 48  1  0  0  0  0
 20 49  1  0  0  0  0
 20 50  1  0  0  0  0
M  END
>  <energy>
155.08534099183066

$$$$
