CC12CC3C(C=O)C45OC1C3(C)C(O)C(O)C2C4CC5(C)C
                    3D

 48 52  0  0  0  0  0  0  0  0999 V2000
   -1.5049    2.4221    1.8031 C   0  0  0  0  0  0  0  0  0  0  0  0
   -0.7798    1.2764    1.1169 C   0  0  0  0  0  0  0  0  0  0  0  0
   -0.7009   -0.3429    2.1900 C   0  0  0  0  0  0  0  0  0  0  0  0
   -0.6990   -1.6399    0.8629 C   0  0  0  0  0  0  0  0  0  0  0  0
    0.6535   -1.7394    0.0060 C   0  0  0  0  0  0  0  0  0  0  0  0
    1.6086   -2.5177    0.8707 C   0  0  0  0  0  0  0  0  0  0  0  0
    2.2685   -3.4658    0.4539 O   0  0  0  0  0  0  0  0  0  0  0  0
    1.0658   -0.3010   -0.3037 C   0  0  0  0  0  0  0  0  0  0  0  0
    0.2248    0.2564    0.6559 O   0  0  0  0  0  0  0  0  0  0  0  0
   -1.5872    0.3060    0.4673 C   0  0  0  0  0  0  0  0  0  0  0  0
   -1.7299   -1.0332   -0.1191 C   0  0  0  0  0  0  0  0  0  0  0  0
   -3.1154   -1.6523    0.1448 C   0  0  0  0  0  0  0  0  0  0  0  0
   -1.5838   -0.5614   -1.6135 C   0  0  0  0  0  0  0  0  0  0  0  0
   -2.6989   -0.9811   -2.4131 O   0  0  0  0  0  0  0  0  0  0  0  0
   -1.5153    1.0515   -1.7354 C   0  0  0  0  0  0  0  0  0  0  0  0
   -2.8161    1.5949   -1.4789 O   0  0  0  0  0  0  0  0  0  0  0  0
   -0.4435    1.6672   -0.7147 C   0  0  0  0  0  0  0  0  0  0  0  0
    0.8712    0.9169   -1.2682 C   0  0  0  0  0  0  0  0  0  0  0  0
    2.2088    1.5048   -0.7984 C   0  0  0  0  0  0  0  0  0  0  0  0
    2.6010    0.1067   -0.2504 C   0  0  0  0  0  0  0  0  0  0  0  0
    3.2645    0.2425    1.1197 C   0  0  0  0  0  0  0  0  0  0  0  0
    3.4896   -0.6665   -1.2295 C   0  0  0  0  0  0  0  0  0  0  0  0
   -2.3037    2.8338    1.1781 H   0  0  0  0  0  0  0  0  0  0  0  0
   -1.9421    2.1038    2.7545 H   0  0  0  0  0  0  0  0  0  0  0  0
   -0.7953    3.2247    2.0235 H   0  0  0  0  0  0  0  0  0  0  0  0
   -1.5856   -0.4508    2.8333 H   0  0  0  0  0  0  0  0  0  0  0  0
    0.2337   -0.3734    2.7684 H   0  0  0  0  0  0  0  0  0  0  0  0
   -0.9786   -2.5928    1.3237 H   0  0  0  0  0  0  0  0  0  0  0  0
    0.5005   -2.3229   -0.9076 H   0  0  0  0  0  0  0  0  0  0  0  0
    1.7135   -2.1778    1.9150 H   0  0  0  0  0  0  0  0  0  0  0  0
   -2.3551    0.3184    1.2682 H   0  0  0  0  0  0  0  0  0  0  0  0
   -3.2088   -2.6135   -0.3715 H   0  0  0  0  0  0  0  0  0  0  0  0
   -3.9272   -0.9968   -0.1889 H   0  0  0  0  0  0  0  0  0  0  0  0
   -3.2840   -1.8391    1.2121 H   0  0  0  0  0  0  0  0  0  0  0  0
   -0.7154   -1.0136   -2.0936 H   0  0  0  0  0  0  0  0  0  0  0  0
   -3.3813   -0.2894   -2.2916 H   0  0  0  0  0  0  0  0  0  0  0  0
   -1.2671    1.3093   -2.7716 H   0  0  0  0  0  0  0  0  0  0  0  0
   -2.7513    2.5586   -1.6128 H   0  0  0  0  0  0  0  0  0  0  0  0
   -0.3669    2.7565   -0.8046 H   0  0  0  0  0  0  0  0  0  0  0  0
    0.8797    0.6836   -2.3391 H   0  0  0  0  0  0  0  0  0  0  0  0
    2.1080    2.2884   -0.0370 H   0  0  0  0  0  0  0  0  0  0  0  0
    2.8429    1.8993   -1.5992 H   0  0  0  0  0  0  0  0  0  0  0  0
    4.1878    0.8274    1.0458 H   0  0  0  0  0  0  0  0  0  0  0  0
    2.6098    0.7492    1.8361 H   0  0  0  0  0  0  0  0  0  0  0  0
    3.5313   -0.7304    1.5392 H   0  0  0  0  0  0  0  0  0  0  0  0
    4.4410   -0.1462   -1.3869 H   0  0  0  0  0  0  0  0  0  0  0  0
    3.0098   -0.7845   -2.2071 H   0  0  0  0  0  0  0  0  0  0  0  0
    3.7229   -1.6659   -0.8528 H   0  0  0  0  0  0  0  0  0  0  0  0
  2  1  1  0  0  0  0
  3  2  1  0  0  0  0
  4  3  1  0  0  0  0
  5  4  1  0  0  0  0
  6  5  1  0  0  0  0
  7  6  2  0  0  0  0
  8  5  1  0  0  0  0
  9  8  1  0  0  0  0
 10  9  1  0  0  0  0
 10  2  1  0  0  0  0
 11 10  1  0  0  0  0
 11  4  1  0  0  0  0
 12 11  1  0  0  0  0
 13 11  1  0  0  0  0
 14 13  1  0  0  0  0
 15 13  1  0  0  0  0
 16 15  1  0  0  0  0
 17 15  1  0  0  0  0
 17  2  1  0  0  0  0
 18 17  1  0  0  0  0
 18  8  1  0  0  0  0
 19 18  1  0  0  0  0
 20 19  1  0  0  0  0
 20  8  1  0  0  0  0
 21 20  1  0  0  0  0
 22 20  1  0  0  0  0
  1 23  1  0  0  0  0
  1 24  1  0  0  0  0
  1 25  1  0  0  0  0
  3 26  1  0  0  0  0
  3 27  1  0  0  0  0
  4 28  1  0  0  0  0
  5 29  1  0  0  0  0
  6 30  1  0  0  0  0
 10 31  1  0  0  0  0
 12 32  1  0  0  0  0
 12 33  1  0  0  0  0
 12 34  1  0  0  0  0
 13 35  1  0  0  0  0
 14 36  1  0  0  0  0
 15 37  1  0  0  0  0
 16 38  1  0  0  0  0
 17 39  1  0  0  0  0
 18 40  1  0  0  0  0
 19 41  1  0  0  0  0
 19 42  1  0  0  0  0
 21 43  1  0  0  0  0
 21 44  1  0  0  0  0
 21 45  1  0  0  0  0
 22 46  1  0  0  0  0
 22 47  1  0  0  0  0
 22 48  1  0  0  0  0
M  END
>  <energy>
545.31839715627848

$$$$
