CSC(=S)NC12CC3CC45CC(C1)C3(C4)N2C5C(=O)N1CCCCC1C(=O)N1CCN(C)C2CC(O)CC2C1
                    3D

 82 89  0  0  0  0  0  0  0  0999 V2000
   -5.2157   -0.0095   -2.9149 C   0  0  0  0  0  0  0  0  0  0  0  0
   -5.0148   -1.7892   -2.5993 S   0  0  0  0  0  0  0  0  0  0  0  0
   -3.3011   -1.8420   -2.3182 C   0  0  0  0  0  0  0  0  0  0  0  0
   -2.1882   -2.1582   -3.5256 S   0  0  0  0  0  0  0  0  0  0  0  0
   -2.8566   -1.6252   -1.0481 N   0  0  0  0  0  0  0  0  0  0  0  0
   -3.5143   -1.7107    0.2097 C   0  0  0  0  0  0  0  0  0  0  0  0
   -4.7634   -0.8689    0.5635 C   0  0  0  0  0  0  0  0  0  0  0  0
   -4.5306   -0.3704    2.0362 C   0  0  0  0  0  0  0  0  0  0  0  0
   -3.5028    0.8485    2.3439 C   0  0  0  0  0  0  0  0  0  0  0  0
   -1.8924   -0.0050    2.7815 C   0  0  0  0  0  0  0  0  0  0  0  0
   -1.4519   -1.8500    2.7947 C   0  0  0  0  0  0  0  0  0  0  0  0
   -2.8437   -2.5940    2.4443 C   0  0  0  0  0  0  0  0  0  0  0  0
   -3.2836   -3.0283    1.0083 C   0  0  0  0  0  0  0  0  0  0  0  0
   -3.5372   -1.3125    2.5789 C   0  0  0  0  0  0  0  0  0  0  0  0
   -2.8879   -0.6145    3.7534 C   0  0  0  0  0  0  0  0  0  0  0  0
   -2.7869   -0.9698    1.1506 N   0  0  0  0  0  0  0  0  0  0  0  0
   -1.6350   -0.1340    1.2641 C   0  0  0  0  0  0  0  0  0  0  0  0
   -1.4794    1.1129    0.3399 C   0  0  0  0  0  0  0  0  0  0  0  0
   -2.1274    1.2812   -0.6861 O   0  0  0  0  0  0  0  0  0  0  0  0
   -0.3620    1.9476    0.6719 N   0  0  0  0  0  0  0  0  0  0  0  0
   -0.7101    2.8103    1.8183 C   0  0  0  0  0  0  0  0  0  0  0  0
    0.1396    4.0740    1.9900 C   0  0  0  0  0  0  0  0  0  0  0  0
    1.5359    3.8892    1.4547 C   0  0  0  0  0  0  0  0  0  0  0  0
    1.4970    3.4962   -0.0150 C   0  0  0  0  0  0  0  0  0  0  0  0
    0.2352    2.6917   -0.4706 C   0  0  0  0  0  0  0  0  0  0  0  0
    0.7496    1.9944   -1.7936 C   0  0  0  0  0  0  0  0  0  0  0  0
    0.6099    2.5850   -2.8784 O   0  0  0  0  0  0  0  0  0  0  0  0
    1.6713    0.9364   -1.6753 N   0  0  0  0  0  0  0  0  0  0  0  0
    1.2292   -0.3418   -1.1692 C   0  0  0  0  0  0  0  0  0  0  0  0
    2.0559   -0.8127    0.0283 C   0  0  0  0  0  0  0  0  0  0  0  0
    3.4289   -1.2968   -0.2554 N   0  0  0  0  0  0  0  0  0  0  0  0
    3.9923   -1.7845    1.0180 C   0  0  0  0  0  0  0  0  0  0  0  0
    4.3146   -0.2885   -0.8937 C   0  0  0  0  0  0  0  0  0  0  0  0
    5.7109   -0.8906   -1.2018 C   0  0  0  0  0  0  0  0  0  0  0  0
    5.4683   -1.8017   -2.4109 C   0  0  0  0  0  0  0  0  0  0  0  0
    6.6294   -1.8202   -3.2323 O   0  0  0  0  0  0  0  0  0  0  0  0
    4.2584   -1.1825   -3.1435 C   0  0  0  0  0  0  0  0  0  0  0  0
    3.9717    0.1066   -2.3550 C   0  0  0  0  0  0  0  0  0  0  0  0
    2.6729    0.8285   -2.7244 C   0  0  0  0  0  0  0  0  0  0  0  0
   -6.2861    0.2163   -2.9697 H   0  0  0  0  0  0  0  0  0  0  0  0
   -4.7832    0.5813   -2.1029 H   0  0  0  0  0  0  0  0  0  0  0  0
   -4.7564    0.3004   -3.8577 H   0  0  0  0  0  0  0  0  0  0  0  0
   -1.8546   -1.6722   -0.9847 H   0  0  0  0  0  0  0  0  0  0  0  0
   -5.6751   -1.4845    0.5208 H   0  0  0  0  0  0  0  0  0  0  0  0
   -4.8969    0.0055   -0.0843 H   0  0  0  0  0  0  0  0  0  0  0  0
   -5.4525   -0.3103    2.6193 H   0  0  0  0  0  0  0  0  0  0  0  0
   -3.4484    1.5613    1.5149 H   0  0  0  0  0  0  0  0  0  0  0  0
   -3.8472    1.4610    3.1890 H   0  0  0  0  0  0  0  0  0  0  0  0
   -1.0581   -2.1317    3.7869 H   0  0  0  0  0  0  0  0  0  0  0  0
   -0.6414   -2.1486    2.1156 H   0  0  0  0  0  0  0  0  0  0  0  0
   -3.0670   -3.3628    3.1915 H   0  0  0  0  0  0  0  0  0  0  0  0
   -2.5354   -3.7035    0.5694 H   0  0  0  0  0  0  0  0  0  0  0  0
   -4.2360   -3.5744    1.0898 H   0  0  0  0  0  0  0  0  0  0  0  0
   -3.4907    0.0764    4.3607 H   0  0  0  0  0  0  0  0  0  0  0  0
   -2.4854   -1.2123    4.5772 H   0  0  0  0  0  0  0  0  0  0  0  0
   -0.6969   -0.6562    1.0484 H   0  0  0  0  0  0  0  0  0  0  0  0
   -1.7558    3.1226    1.6941 H   0  0  0  0  0  0  0  0  0  0  0  0
   -0.6683    2.2073    2.7265 H   0  0  0  0  0  0  0  0  0  0  0  0
    0.1697    4.3592    3.0453 H   0  0  0  0  0  0  0  0  0  0  0  0
   -0.3355    4.9127    1.4697 H   0  0  0  0  0  0  0  0  0  0  0  0
    2.1411    4.7967    1.5728 H   0  0  0  0  0  0  0  0  0  0  0  0
    2.0567    3.1143    2.0314 H   0  0  0  0  0  0  0  0  0  0  0  0
    1.5731    4.3973   -0.6475 H   0  0  0  0  0  0  0  0  0  0  0  0
    2.4211    2.9390   -0.2166 H   0  0  0  0  0  0  0  0  0  0  0  0
   -0.5585    3.3884   -0.7935 H   0  0  0  0  0  0  0  0  0  0  0  0
    0.1800   -0.2769   -0.9101 H   0  0  0  0  0  0  0  0  0  0  0  0
    1.2612   -1.0817   -1.9781 H   0  0  0  0  0  0  0  0  0  0  0  0
    2.0715   -0.0237    0.7938 H   0  0  0  0  0  0  0  0  0  0  0  0
    1.4936   -1.6612    0.4431 H   0  0  0  0  0  0  0  0  0  0  0  0
    3.2743   -2.4272    1.5356 H   0  0  0  0  0  0  0  0  0  0  0  0
    4.2553   -0.9609    1.6913 H   0  0  0  0  0  0  0  0  0  0  0  0
    4.8748   -2.4142    0.8691 H   0  0  0  0  0  0  0  0  0  0  0  0
    4.4180    0.5985   -0.2560 H   0  0  0  0  0  0  0  0  0  0  0  0
    6.4072   -0.0852   -1.4734 H   0  0  0  0  0  0  0  0  0  0  0  0
    6.2026   -1.4089   -0.3781 H   0  0  0  0  0  0  0  0  0  0  0  0
    5.2553   -2.8284   -2.0925 H   0  0  0  0  0  0  0  0  0  0  0  0
    6.4101   -2.3126   -4.0431 H   0  0  0  0  0  0  0  0  0  0  0  0
    4.4735   -0.9723   -4.1963 H   0  0  0  0  0  0  0  0  0  0  0  0
    3.4020   -1.8677   -3.1036 H   0  0  0  0  0  0  0  0  0  0  0  0
    4.7568    0.8141   -2.6798 H   0  0  0  0  0  0  0  0  0  0  0  0
    2.9463    1.8520   -3.0227 H   0  0  0  0  0  0  0  0  0  0  0  0
    2.1992    0.3719   -3.6041 H   0  0  0  0  0  0  0  0  0  0  0  0
  2  1  1  0  0  0  0
  3  2  1  0  0  0  0
  4  3  2  0  0  0  0
  5  3  1  0  0  0  0
  6  5  1  0  0  0  0
  7  6  1  0  0  0  0
  8  7  1  0  0  0  0
  9  8  1  0  0  0  0
 10  9  1  0  0  0  0
 11 10  1  0  0  0  0
 12 11  1  0  0  0  0
 13 12  1  0  0  0  0
 13  6  1  0  0  0  0
 14 12  1  0  0  0  0
 14  8  1  0  0  0  0
 15 14  1  0  0  0  0
 15 10  1  0  0  0  0
 16 14  1  0  0  0  0
 16  6  1  0  0  0  0
 17 16  1  0  0  0  0
 17 10  1  0  0  0  0
 18 17  1  0  0  0  0
 19 18  2  0  0  0  0
 20 18  1  0  0  0  0
 21 20  1  0  0  0  0
 22 21  1  0  0  0  0
 23 22  1  0  0  0  0
 24 23  1  0  0  0  0
 25 24  1  0  0  0  0
 25 20  1  0  0  0  0
 26 25  1  0  0  0  0
 27 26  2  0  0  0  0
 28 26  1  0  0  0  0
 29 28  1  0  0  0  0
 30 29  1  0  0  0  0
 31 30  1  0  0  0  0
 32 31  1  0  0  0  0
 33 31  1  0  0  0  0
 34 33  1  0  0  0  0
 35 34  1  0  0  0  0
 36 35  1  0  0  0  0
 37 35  1  0  0  0  0
 38 37  1  0  0  0  0
 38 33  1  0  0  0  0
 39 38  1  0  0  0  0
 39 28  1  0  0  0  0
  1 40  1  0  0  0  0
  1 41  1  0  0  0  0
  1 42  1  0  0  0  0
  5 43  1  0  0  0  0
  7 44  1  0  0  0  0
  7 45  1  0  0  0  0
  8 46  1  0  0  0  0
  9 47  1  0  0  0  0
  9 48  1  0  0  0  0
 11 49  1  0  0  0  0
 11 50  1  0  0  0  0
 12 51  1  0  0  0  0
 13 52  1  0  0  0  0
 13 53  1  0  0  0  0
 15 54  1  0  0  0  0
 15 55  1  0  0  0  0
 17 56  1  0  0  0  0
 21 57  1  0  0  0  0
 21 58  1  0  0  0  0
 22 59  1  0  0  0  0
 22 60  1  0  0  0  0
 23 61  1  0  0  0  0
 23 62  1  0  0  0  0
 24 63  1  0  0  0  0
 24 64  1  0  0  0  0
 25 65  1  0  0  0  0
 29 66  1  0  0  0  0
 29 67  1  0  0  0  0
 30 68  1  0  0  0  0
 30 69  1  0  0  0  0
 32 70  1  0  0  0  0
 32 71  1  0  0  0  0
 32 72  1  0  0  0  0
 33 73  1  0  0  0  0
 34 74  1  0  0  0  0
 34 75  1  0  0  0  0
 35 76  1  0  0  0  0
 36 77  1  0  0  0  0
 37 78  1  0  0  0  0
 37 79  1  0  0  0  0
 38 80  1  0  0  0  0
 39 81  1  0  0  0  0
 39 82  1  0  0  0  0
M  END
>  <energy>
425.48738227769599

$$$$
