CC1C2C3C4C5(C=O)C6CC6C6OCC47C(O)C2(C)C(=O)NCC[S+]([O-])CCCC=CCCCCC1(O)C37C65
                    3D

 82 89  0  0  0  0  0  0  0  0999 V2000
    0.3676    0.0610    3.3237 C   0  0  0  0  0  0  0  0  0  0  0  0
   -0.2432    0.0427    1.9283 C   0  0  0  0  0  0  0  0  0  0  0  0
    0.0107   -1.2016    0.9938 C   0  0  0  0  0  0  0  0  0  0  0  0
    0.6541   -0.6171   -0.3220 C   0  0  0  0  0  0  0  0  0  0  0  0
    2.1298   -0.8145   -0.9130 C   0  0  0  0  0  0  0  0  0  0  0  0
    2.2800    0.3600   -1.8898 C   0  0  0  0  0  0  0  0  0  0  0  0
    1.3313    0.2387   -3.0792 C   0  0  0  0  0  0  0  0  0  0  0  0
    0.3655    0.9717   -3.2650 O   0  0  0  0  0  0  0  0  0  0  0  0
    3.6808    0.6378   -2.3645 C   0  0  0  0  0  0  0  0  0  0  0  0
    3.9921    1.9546   -3.0390 C   0  0  0  0  0  0  0  0  0  0  0  0
    4.2628    1.7539   -1.5696 C   0  0  0  0  0  0  0  0  0  0  0  0
    3.2767    2.1265   -0.4987 C   0  0  0  0  0  0  0  0  0  0  0  0
    3.7323    1.6596    0.7684 O   0  0  0  0  0  0  0  0  0  0  0  0
    3.8490    0.2392    0.8923 C   0  0  0  0  0  0  0  0  0  0  0  0
    2.5265   -0.4537    0.5751 C   0  0  0  0  0  0  0  0  0  0  0  0
    2.3691   -1.7460    1.4507 C   0  0  0  0  0  0  0  0  0  0  0  0
    3.4002   -2.6790    1.1296 O   0  0  0  0  0  0  0  0  0  0  0  0
    0.9368   -2.3661    1.4049 C   0  0  0  0  0  0  0  0  0  0  0  0
    0.6067   -3.0389    2.7513 C   0  0  0  0  0  0  0  0  0  0  0  0
    0.7161   -3.4687    0.3113 C   0  0  0  0  0  0  0  0  0  0  0  0
    1.5469   -3.7240   -0.5529 O   0  0  0  0  0  0  0  0  0  0  0  0
   -0.5426   -4.0580    0.3175 N   0  0  0  0  0  0  0  0  0  0  0  0
   -1.2842   -4.2992   -0.9276 C   0  0  0  0  0  0  0  0  0  0  0  0
   -1.9742   -2.9956   -1.3146 C   0  0  0  0  0  0  0  0  0  0  0  0
   -3.3613   -3.1301   -2.4593 S   0  3  0  0  0  0  0  0  0  0  0  0
   -2.8209   -3.6511   -3.7578 O   0  5  0  0  0  0  0  0  0  0  0  0
   -3.6165   -1.3068   -2.6596 C   0  0  0  0  0  0  0  0  0  0  0  0
   -4.1546   -0.6461   -1.3889 C   0  0  0  0  0  0  0  0  0  0  0  0
   -4.3627    0.8722   -1.5380 C   0  0  0  0  0  0  0  0  0  0  0  0
   -4.2056    1.5634   -0.2029 C   0  0  0  0  0  0  0  0  0  0  0  0
   -3.4798    2.6805   -0.0109 C   0  0  0  0  0  0  0  0  0  0  0  0
   -3.1775    3.2855    1.3403 C   0  0  0  0  0  0  0  0  0  0  0  0
   -1.7736    3.9293    1.4413 C   0  0  0  0  0  0  0  0  0  0  0  0
   -0.7845    3.2221    2.3941 C   0  0  0  0  0  0  0  0  0  0  0  0
    0.4511    2.5762    1.7226 C   0  0  0  0  0  0  0  0  0  0  0  0
    0.1785    1.2333    1.0451 C   0  0  0  0  0  0  0  0  0  0  0  0
   -0.9047    1.4285    0.1269 O   0  0  0  0  0  0  0  0  0  0  0  0
    1.3377    0.6570    0.2500 C   0  0  0  0  0  0  0  0  0  0  0  0
    1.9251    1.4939   -0.9003 C   0  0  0  0  0  0  0  0  0  0  0  0
    0.0474    0.9471    3.8810 H   0  0  0  0  0  0  0  0  0  0  0  0
    0.0174   -0.7808    3.9214 H   0  0  0  0  0  0  0  0  0  0  0  0
    1.4572    0.0880    3.3125 H   0  0  0  0  0  0  0  0  0  0  0  0
   -1.3318    0.0933    2.0839 H   0  0  0  0  0  0  0  0  0  0  0  0
   -0.9827   -1.5771    0.7458 H   0  0  0  0  0  0  0  0  0  0  0  0
   -0.1206   -0.4777   -1.0849 H   0  0  0  0  0  0  0  0  0  0  0  0
    2.4239   -1.7751   -1.3247 H   0  0  0  0  0  0  0  0  0  0  0  0
    1.5533   -0.5891   -3.7777 H   0  0  0  0  0  0  0  0  0  0  0  0
    4.2762   -0.2318   -2.6030 H   0  0  0  0  0  0  0  0  0  0  0  0
    3.1815    2.6161   -3.3296 H   0  0  0  0  0  0  0  0  0  0  0  0
    4.8428    1.9889   -3.7117 H   0  0  0  0  0  0  0  0  0  0  0  0
    5.2959    1.7425   -1.2480 H   0  0  0  0  0  0  0  0  0  0  0  0
    3.1847    3.2173   -0.4344 H   0  0  0  0  0  0  0  0  0  0  0  0
    4.6747   -0.1500    0.2880 H   0  0  0  0  0  0  0  0  0  0  0  0
    4.1316    0.0712    1.9375 H   0  0  0  0  0  0  0  0  0  0  0  0
    2.5814   -1.4585    2.4844 H   0  0  0  0  0  0  0  0  0  0  0  0
    3.1212   -3.1881    0.3388 H   0  0  0  0  0  0  0  0  0  0  0  0
    1.0959   -2.5611    3.6046 H   0  0  0  0  0  0  0  0  0  0  0  0
   -0.4713   -3.0400    2.9489 H   0  0  0  0  0  0  0  0  0  0  0  0
    0.9427   -4.0843    2.7640 H   0  0  0  0  0  0  0  0  0  0  0  0
   -1.1247   -3.9008    1.1281 H   0  0  0  0  0  0  0  0  0  0  0  0
   -2.0093   -5.0926   -0.7172 H   0  0  0  0  0  0  0  0  0  0  0  0
   -0.6037   -4.6410   -1.7144 H   0  0  0  0  0  0  0  0  0  0  0  0
   -1.2413   -2.3019   -1.7315 H   0  0  0  0  0  0  0  0  0  0  0  0
   -2.4005   -2.5666   -0.4068 H   0  0  0  0  0  0  0  0  0  0  0  0
   -2.6585   -0.8701   -2.9589 H   0  0  0  0  0  0  0  0  0  0  0  0
   -4.3237   -1.1823   -3.4856 H   0  0  0  0  0  0  0  0  0  0  0  0
   -5.1065   -1.1154   -1.1057 H   0  0  0  0  0  0  0  0  0  0  0  0
   -3.4668   -0.8239   -0.5577 H   0  0  0  0  0  0  0  0  0  0  0  0
   -5.3687    1.0650   -1.9292 H   0  0  0  0  0  0  0  0  0  0  0  0
   -3.6495    1.2875   -2.2607 H   0  0  0  0  0  0  0  0  0  0  0  0
   -4.6664    1.0773    0.6534 H   0  0  0  0  0  0  0  0  0  0  0  0
   -3.0310    3.1697   -0.8726 H   0  0  0  0  0  0  0  0  0  0  0  0
   -3.3263    2.5485    2.1376 H   0  0  0  0  0  0  0  0  0  0  0  0
   -3.9187    4.0779    1.5035 H   0  0  0  0  0  0  0  0  0  0  0  0
   -1.9228    4.9406    1.8489 H   0  0  0  0  0  0  0  0  0  0  0  0
   -1.3212    4.0870    0.4554 H   0  0  0  0  0  0  0  0  0  0  0  0
   -1.3047    2.5028    3.0334 H   0  0  0  0  0  0  0  0  0  0  0  0
   -0.3905    3.9887    3.0767 H   0  0  0  0  0  0  0  0  0  0  0  0
    0.8374    3.2914    0.9871 H   0  0  0  0  0  0  0  0  0  0  0  0
    1.2528    2.4618    2.4624 H   0  0  0  0  0  0  0  0  0  0  0  0
   -0.6705    2.1163   -0.5205 H   0  0  0  0  0  0  0  0  0  0  0  0
    1.2519    2.2385   -1.3362 H   0  0  0  0  0  0  0  0  0  0  0  0
  2  1  1  0  0  0  0
  3  2  1  0  0  0  0
  4  3  1  0  0  0  0
  5  4  1  0  0  0  0
  6  5  1  0  0  0  0
  7  6  1  0  0  0  0
  8  7  2  0  0  0  0
  9  6  1  0  0  0  0
 10  9  1  0  0  0  0
 11 10  1  0  0  0  0
 11  9  1  0  0  0  0
 12 11  1  0  0  0  0
 13 12  1  0  0  0  0
 14 13  1  0  0  0  0
 15 14  1  0  0  0  0
 15  5  1  0  0  0  0
 16 15  1  0  0  0  0
 17 16  1  0  0  0  0
 18 16  1  0  0  0  0
 18  3  1  0  0  0  0
 19 18  1  0  0  0  0
 20 18  1  0  0  0  0
 21 20  2  0  0  0  0
 22 20  1  0  0  0  0
 23 22  1  0  0  0  0
 24 23  1  0  0  0  0
 25 24  1  0  0  0  0
 26 25  1  0  0  0  0
 27 25  1  0  0  0  0
 28 27  1  0  0  0  0
 29 28  1  0  0  0  0
 30 29  1  0  0  0  0
 31 30  2  0  0  0  0
 32 31  1  0  0  0  0
 33 32  1  0  0  0  0
 34 33  1  0  0  0  0
 35 34  1  0  0  0  0
 36 35  1  0  0  0  0
 36  2  1  0  0  0  0
 37 36  1  0  0  0  0
 38 36  1  0  0  0  0
 38  4  1  0  0  0  0
 38 15  1  0  0  0  0
 39 38  1  0  0  0  0
 39 12  1  0  0  0  0
 39  6  1  0  0  0  0
  1 40  1  0  0  0  0
  1 41  1  0  0  0  0
  1 42  1  0  0  0  0
  2 43  1  0  0  0  0
  3 44  1  0  0  0  0
  4 45  1  0  0  0  0
  5 46  1  0  0  0  0
  7 47  1  0  0  0  0
  9 48  1  0  0  0  0
 10 49  1  0  0  0  0
 10 50  1  0  0  0  0
 11 51  1  0  0  0  0
 12 52  1  0  0  0  0
 14 53  1  0  0  0  0
 14 54  1  0  0  0  0
 16 55  1  0  0  0  0
 17 56  1  0  0  0  0
 19 57  1  0  0  0  0
 19 58  1  0  0  0  0
 19 59  1  0  0  0  0
 22 60  1  0  0  0  0
 23 61  1  0  0  0  0
 23 62  1  0  0  0  0
 24 63  1  0  0  0  0
 24 64  1  0  0  0  0
 27 65  1  0  0  0  0
 27 66  1  0  0  0  0
 28 67  1  0  0  0  0
 28 68  1  0  0  0  0
 29 69  1  0  0  0  0
 29 70  1  0  0  0  0
 30 71  1  0  0  0  0
 31 72  1  0  0  0  0
 32 73  1  0  0  0  0
 32 74  1  0  0  0  0
 33 75  1  0  0  0  0
 33 76  1  0  0  0  0
 34 77  1  0  0  0  0
 34 78  1  0  0  0  0
 35 79  1  0  0  0  0
 35 80  1  0  0  0  0
 37 81  1  0  0  0  0
 39 82  1  0  0  0  0
M  CHG  2  25   1  26  -1
M  END
>  <energy>
173.67738153197678

$$$$
