CC1(NC(=O)CSc2cnc(C(N)=O)s2)CC2CC3CC(C3)(C2)C1
                    3D

 47 50  0  0  0  0  0  0  0  0999 V2000
    1.3878    2.7617    1.2546 C   0  0  0  0  0  0  0  0  0  0  0  0
    1.1176    1.5278    0.3322 C   0  0  0  0  0  0  0  0  0  0  0  0
   -0.0369    1.9580   -0.5177 N   0  0  0  0  0  0  0  0  0  0  0  0
   -0.5626    1.2955   -1.6185 C   0  0  0  0  0  0  0  0  0  0  0  0
   -0.0902    0.2680   -2.0835 O   0  0  0  0  0  0  0  0  0  0  0  0
   -1.7589    2.0168   -2.2451 C   0  0  0  0  0  0  0  0  0  0  0  0
   -2.8680    0.9142   -3.1662 S   0  0  0  0  0  0  0  0  0  0  0  0
   -3.8738    0.2836   -1.8865 C   0  0  0  0  0  0  0  0  0  0  0  0
   -4.6663    0.9873   -1.0044 C   0  0  0  0  0  0  0  0  0  0  0  0
   -5.2831    0.2273   -0.0296 N   0  0  0  0  0  0  0  0  0  0  0  0
   -5.0446   -1.0559   -0.2451 C   0  0  0  0  0  0  0  0  0  0  0  0
   -5.5800   -2.1265    0.5950 C   0  0  0  0  0  0  0  0  0  0  0  0
   -5.4247   -3.4147    0.1477 N   0  0  0  0  0  0  0  0  0  0  0  0
   -6.1658   -1.9580    1.6658 O   0  0  0  0  0  0  0  0  0  0  0  0
   -4.0300   -1.3905   -1.5887 S   0  0  0  0  0  0  0  0  0  0  0  0
    2.4590    1.2953   -0.5129 C   0  0  0  0  0  0  0  0  0  0  0  0
    3.5963    0.4637    0.1987 C   0  0  0  0  0  0  0  0  0  0  0  0
    3.9522   -0.9544   -0.3951 C   0  0  0  0  0  0  0  0  0  0  0  0
    2.9832   -2.0842    0.1379 C   0  0  0  0  0  0  0  0  0  0  0  0
    2.3793   -2.1469    1.6447 C   0  0  0  0  0  0  0  0  0  0  0  0
    1.8586   -0.7073    1.2612 C   0  0  0  0  0  0  0  0  0  0  0  0
    1.6011   -1.5343   -0.1408 C   0  0  0  0  0  0  0  0  0  0  0  0
    3.1380    0.1091    1.5833 C   0  0  0  0  0  0  0  0  0  0  0  0
    0.6948    0.2721    1.2211 C   0  0  0  0  0  0  0  0  0  0  0  0
    2.2897    2.6810    1.8623 H   0  0  0  0  0  0  0  0  0  0  0  0
    0.5466    2.9377    1.9360 H   0  0  0  0  0  0  0  0  0  0  0  0
    1.5200    3.6705    0.6545 H   0  0  0  0  0  0  0  0  0  0  0  0
   -0.6276    2.6704   -0.1075 H   0  0  0  0  0  0  0  0  0  0  0  0
   -2.3305    2.5593   -1.4864 H   0  0  0  0  0  0  0  0  0  0  0  0
   -1.3636    2.7496   -2.9544 H   0  0  0  0  0  0  0  0  0  0  0  0
   -4.8094    2.0645   -1.0056 H   0  0  0  0  0  0  0  0  0  0  0  0
   -5.8239   -4.1576    0.7056 H   0  0  0  0  0  0  0  0  0  0  0  0
   -5.0269   -3.6253   -0.7564 H   0  0  0  0  0  0  0  0  0  0  0  0
    2.2437    0.8603   -1.4924 H   0  0  0  0  0  0  0  0  0  0  0  0
    2.8830    2.2810   -0.7625 H   0  0  0  0  0  0  0  0  0  0  0  0
    4.5078    1.0701    0.2185 H   0  0  0  0  0  0  0  0  0  0  0  0
    4.9729   -1.2221   -0.0945 H   0  0  0  0  0  0  0  0  0  0  0  0
    3.9347   -0.9165   -1.4892 H   0  0  0  0  0  0  0  0  0  0  0  0
    3.2092   -3.0563   -0.3060 H   0  0  0  0  0  0  0  0  0  0  0  0
    3.1058   -2.2589    2.4557 H   0  0  0  0  0  0  0  0  0  0  0  0
    1.6089   -2.9105    1.8162 H   0  0  0  0  0  0  0  0  0  0  0  0
    1.5119   -1.0343   -1.0998 H   0  0  0  0  0  0  0  0  0  0  0  0
    0.7729   -2.2583   -0.1044 H   0  0  0  0  0  0  0  0  0  0  0  0
    3.9314   -0.4481    2.0981 H   0  0  0  0  0  0  0  0  0  0  0  0
    2.9463    0.9378    2.2606 H   0  0  0  0  0  0  0  0  0  0  0  0
    0.4251    0.5941    2.2355 H   0  0  0  0  0  0  0  0  0  0  0  0
   -0.2107   -0.1961    0.8078 H   0  0  0  0  0  0  0  0  0  0  0  0
  2  1  1  0  0  0  0
  3  2  1  0  0  0  0
  4  3  1  0  0  0  0
  5  4  2  0  0  0  0
  6  4  1  0  0  0  0
  7  6  1  0  0  0  0
  8  7  1  0  0  0  0
  9  8  2  0  0  0  0
 10  9  1  0  0  0  0
 11 10  2  0  0  0  0
 12 11  1  0  0  0  0
 13 12  1  0  0  0  0
 14 12  2  0  0  0  0
 15 11  1  0  0  0  0
 15  8  1  0  0  0  0
 16  2  1  0  0  0  0
 17 16  1  0  0  0  0
 18 17  1  0  0  0  0
 19 18  1  0  0  0  0
 20 19  1  0  0  0  0
 21 20  1  0  0  0  0
 22 21  1  0  0  0  0
 22 19  1  0  0  0  0
 23 21  1  0  0  0  0
 23 17  1  0  0  0  0
 24 21  1  0  0  0  0
 24  2  1  0  0  0  0
  1 25  1  0  0  0  0
  1 26  1  0  0  0  0
  1 27  1  0  0  0  0
  3 28  1  0  0  0  0
  6 29  1  0  0  0  0
  6 30  1  0  0  0  0
  9 31  1  0  0  0  0
 13 32  1  0  0  0  0
 13 33  1  0  0  0  0
 16 34  1  0  0  0  0
 16 35  1  0  0  0  0
 17 36  1  0  0  0  0
 18 37  1  0  0  0  0
 18 38  1  0  0  0  0
 19 39  1  0  0  0  0
 20 40  1  0  0  0  0
 20 41  1  0  0  0  0
 22 42  1  0  0  0  0
 22 43  1  0  0  0  0
 23 44  1  0  0  0  0
 23 45  1  0  0  0  0
 24 46  1  0  0  0  0
 24 47  1  0  0  0  0
M  END
>  <energy>
129.90269428175614

$$$$
