CC1CCC2C(C)(C)C(O)(C(=O)N=CC=CC(=O)CC3=NC(N[N+](C)=O)=NC3)C3(C)CCC14CC21CCC(O)C1
                    3D

 91 96  0  0  0  0  0  0  0  0999 V2000
    1.6205    2.1668    3.6284 C   0  0  0  0  0  0  0  0  0  0  0  0
    2.3922    1.6339    2.3721 C   0  0  0  0  0  0  0  0  0  0  0  0
    2.8909    2.8830    1.6373 C   0  0  0  0  0  0  0  0  0  0  0  0
    3.4758    2.7418    0.2610 C   0  0  0  0  0  0  0  0  0  0  0  0
    2.7157    1.8190   -0.7129 C   0  0  0  0  0  0  0  0  0  0  0  0
    1.0736    2.3279   -0.9526 C   0  0  0  0  0  0  0  0  0  0  0  0
    0.7140    2.1529   -2.4820 C   0  0  0  0  0  0  0  0  0  0  0  0
    1.0920    3.9195   -0.9238 C   0  0  0  0  0  0  0  0  0  0  0  0
   -0.1647    1.8746    0.0953 C   0  0  0  0  0  0  0  0  0  0  0  0
   -0.0061    2.7221    1.2605 O   0  0  0  0  0  0  0  0  0  0  0  0
   -1.6142    2.3491   -0.3676 C   0  0  0  0  0  0  0  0  0  0  0  0
   -2.3999    2.7807    0.4850 O   0  0  0  0  0  0  0  0  0  0  0  0
   -1.9484    2.2362   -1.6939 N   0  0  0  0  0  0  0  0  0  0  0  0
   -3.0750    1.7146   -2.0502 C   0  0  0  0  0  0  0  0  0  0  0  0
   -4.1352    1.1110   -1.2071 C   0  0  0  0  0  0  0  0  0  0  0  0
   -4.9183    0.1682   -1.7439 C   0  0  0  0  0  0  0  0  0  0  0  0
   -5.8976   -0.6535   -0.9777 C   0  0  0  0  0  0  0  0  0  0  0  0
   -6.7527   -1.2706   -1.6128 O   0  0  0  0  0  0  0  0  0  0  0  0
   -5.8019   -0.7824    0.5224 C   0  0  0  0  0  0  0  0  0  0  0  0
   -5.4036   -2.1493    0.9579 C   0  0  0  0  0  0  0  0  0  0  0  0
   -4.3162   -2.7569    0.6132 N   0  0  0  0  0  0  0  0  0  0  0  0
   -4.3289   -3.9326    1.3279 C   0  0  0  0  0  0  0  0  0  0  0  0
   -3.3343   -4.8462    1.2708 N   0  0  0  0  0  0  0  0  0  0  0  0
   -2.1202   -4.6695    0.6063 N   0  3  0  0  0  0  0  0  0  0  0  0
   -2.0427   -4.3824   -0.8273 C   0  0  0  0  0  0  0  0  0  0  0  0
   -1.1076   -4.9034    1.2370 O   0  0  0  0  0  0  0  0  0  0  0  0
   -5.3522   -4.1122    2.1146 N   0  0  0  0  0  0  0  0  0  0  0  0
   -6.2176   -2.9411    1.9165 C   0  0  0  0  0  0  0  0  0  0  0  0
   -0.2800    0.3729    0.6782 C   0  0  0  0  0  0  0  0  0  0  0  0
   -1.4456   -0.4331    0.0757 C   0  0  0  0  0  0  0  0  0  0  0  0
   -0.2878    0.0929    2.2546 C   0  0  0  0  0  0  0  0  0  0  0  0
    1.1527   -0.4676    2.6468 C   0  0  0  0  0  0  0  0  0  0  0  0
    2.0191    0.2310    1.5759 C   0  0  0  0  0  0  0  0  0  0  0  0
    3.3798   -0.1726    1.0143 C   0  0  0  0  0  0  0  0  0  0  0  0
    3.3854    0.2731   -0.4987 C   0  0  0  0  0  0  0  0  0  0  0  0
    4.8225    0.2477   -1.0889 C   0  0  0  0  0  0  0  0  0  0  0  0
    4.6294    0.0679   -2.5967 C   0  0  0  0  0  0  0  0  0  0  0  0
    3.2992   -0.6732   -2.7718 C   0  0  0  0  0  0  0  0  0  0  0  0
    2.4519    0.0568   -3.6333 O   0  0  0  0  0  0  0  0  0  0  0  0
    2.7478   -0.8625   -1.3371 C   0  0  0  0  0  0  0  0  0  0  0  0
    3.1468   -2.3225   -0.9469 C   0  0  0  0  0  0  0  0  0  0  0  0
    1.2827   -0.7190   -1.0629 C   0  0  0  0  0  0  0  0  0  0  0  0
    1.0115   -0.3178    0.4110 C   0  0  0  0  0  0  0  0  0  0  0  0
    2.1629    3.0194    4.0617 H   0  0  0  0  0  0  0  0  0  0  0  0
    1.5671    1.4507    4.4515 H   0  0  0  0  0  0  0  0  0  0  0  0
    0.6204    2.5378    3.4225 H   0  0  0  0  0  0  0  0  0  0  0  0
    3.2994    1.3104    2.9144 H   0  0  0  0  0  0  0  0  0  0  0  0
    3.6754    3.3453    2.2577 H   0  0  0  0  0  0  0  0  0  0  0  0
    2.1122    3.6442    1.6468 H   0  0  0  0  0  0  0  0  0  0  0  0
    3.5846    3.7387   -0.1827 H   0  0  0  0  0  0  0  0  0  0  0  0
    4.5130    2.4179    0.3847 H   0  0  0  0  0  0  0  0  0  0  0  0
    3.1476    2.1024   -1.6836 H   0  0  0  0  0  0  0  0  0  0  0  0
    1.6073    2.2157   -3.1094 H   0  0  0  0  0  0  0  0  0  0  0  0
    0.0856    2.9725   -2.8558 H   0  0  0  0  0  0  0  0  0  0  0  0
    0.1553    1.2586   -2.7494 H   0  0  0  0  0  0  0  0  0  0  0  0
    1.2979    4.3620    0.0466 H   0  0  0  0  0  0  0  0  0  0  0  0
    0.1220    4.3343   -1.2258 H   0  0  0  0  0  0  0  0  0  0  0  0
    1.8439    4.3113   -1.6191 H   0  0  0  0  0  0  0  0  0  0  0  0
   -0.8935    2.8264    1.6626 H   0  0  0  0  0  0  0  0  0  0  0  0
   -3.2546    1.6470   -3.1386 H   0  0  0  0  0  0  0  0  0  0  0  0
   -4.1795    1.4067   -0.1690 H   0  0  0  0  0  0  0  0  0  0  0  0
   -4.8565   -0.0997   -2.7956 H   0  0  0  0  0  0  0  0  0  0  0  0
   -6.7843   -0.5372    0.9400 H   0  0  0  0  0  0  0  0  0  0  0  0
   -5.0941   -0.0811    0.9672 H   0  0  0  0  0  0  0  0  0  0  0  0
   -3.2464   -5.3928    2.1154 H   0  0  0  0  0  0  0  0  0  0  0  0
   -2.8665   -4.8949   -1.3312 H   0  0  0  0  0  0  0  0  0  0  0  0
   -1.0900   -4.7591   -1.2087 H   0  0  0  0  0  0  0  0  0  0  0  0
   -2.1083   -3.3044   -0.9772 H   0  0  0  0  0  0  0  0  0  0  0  0
   -6.3600   -2.3933    2.8510 H   0  0  0  0  0  0  0  0  0  0  0  0
   -7.1759   -3.2223    1.4737 H   0  0  0  0  0  0  0  0  0  0  0  0
   -1.4694   -0.3781   -1.0154 H   0  0  0  0  0  0  0  0  0  0  0  0
   -1.3719   -1.4950    0.3350 H   0  0  0  0  0  0  0  0  0  0  0  0
   -2.3979   -0.0900    0.4842 H   0  0  0  0  0  0  0  0  0  0  0  0
   -0.5801    0.9681    2.8339 H   0  0  0  0  0  0  0  0  0  0  0  0
   -1.0190   -0.6824    2.5169 H   0  0  0  0  0  0  0  0  0  0  0  0
    1.1731   -1.5638    2.5665 H   0  0  0  0  0  0  0  0  0  0  0  0
    1.4158   -0.3084    3.6904 H   0  0  0  0  0  0  0  0  0  0  0  0
    4.2362    0.2917    1.5176 H   0  0  0  0  0  0  0  0  0  0  0  0
    3.5595   -1.2356    1.1763 H   0  0  0  0  0  0  0  0  0  0  0  0
    5.4194    1.1395   -0.8883 H   0  0  0  0  0  0  0  0  0  0  0  0
    5.3966   -0.5943   -0.6842 H   0  0  0  0  0  0  0  0  0  0  0  0
    5.4624   -0.5116   -3.0097 H   0  0  0  0  0  0  0  0  0  0  0  0
    4.6240    1.0357   -3.1108 H   0  0  0  0  0  0  0  0  0  0  0  0
    3.4900   -1.6266   -3.2753 H   0  0  0  0  0  0  0  0  0  0  0  0
    1.6935   -0.5110   -3.8476 H   0  0  0  0  0  0  0  0  0  0  0  0
    2.7080   -2.6478    0.0027 H   0  0  0  0  0  0  0  0  0  0  0  0
    4.2302   -2.4619   -0.8906 H   0  0  0  0  0  0  0  0  0  0  0  0
    2.7646   -3.0309   -1.6938 H   0  0  0  0  0  0  0  0  0  0  0  0
    0.8100   -0.0508   -1.7445 H   0  0  0  0  0  0  0  0  0  0  0  0
    0.7656   -1.6662   -1.2941 H   0  0  0  0  0  0  0  0  0  0  0  0
    0.8517   -1.3723    0.7070 H   0  0  0  0  0  0  0  0  0  0  0  0
  2  1  1  0  0  0  0
  3  2  1  0  0  0  0
  4  3  1  0  0  0  0
  5  4  1  0  0  0  0
  6  5  1  0  0  0  0
  7  6  1  0  0  0  0
  8  6  1  0  0  0  0
  9  6  1  0  0  0  0
 10  9  1  0  0  0  0
 11  9  1  0  0  0  0
 12 11  2  0  0  0  0
 13 11  1  0  0  0  0
 14 13  2  0  0  0  0
 15 14  1  0  0  0  0
 16 15  2  0  0  0  0
 17 16  1  0  0  0  0
 18 17  2  0  0  0  0
 19 17  1  0  0  0  0
 20 19  1  0  0  0  0
 21 20  2  0  0  0  0
 22 21  1  0  0  0  0
 23 22  1  0  0  0  0
 24 23  1  0  0  0  0
 25 24  1  0  0  0  0
 26 24  2  0  0  0  0
 27 22  2  0  0  0  0
 28 27  1  0  0  0  0
 28 20  1  0  0  0  0
 29  9  1  0  0  0  0
 30 29  1  0  0  0  0
 31 29  1  0  0  0  0
 32 31  1  0  0  0  0
 33 32  1  0  0  0  0
 33  2  1  0  0  0  0
 34 33  1  0  0  0  0
 35 34  1  0  0  0  0
 35  5  1  0  0  0  0
 36 35  1  0  0  0  0
 37 36  1  0  0  0  0
 38 37  1  0  0  0  0
 39 38  1  0  0  0  0
 40 38  1  0  0  0  0
 40 35  1  0  0  0  0
 41 40  1  0  0  0  0
 42 40  1  0  0  0  0
 43 42  1  0  0  0  0
 43 33  1  0  0  0  0
 43 29  1  0  0  0  0
  1 44  1  0  0  0  0
  1 45  1  0  0  0  0
  1 46  1  0  0  0  0
  2 47  1  0  0  0  0
  3 48  1  0  0  0  0
  3 49  1  0  0  0  0
  4 50  1  0  0  0  0
  4 51  1  0  0  0  0
  5 52  1  0  0  0  0
  7 53  1  0  0  0  0
  7 54  1  0  0  0  0
  7 55  1  0  0  0  0
  8 56  1  0  0  0  0
  8 57  1  0  0  0  0
  8 58  1  0  0  0  0
 10 59  1  0  0  0  0
 14 60  1  0  0  0  0
 15 61  1  0  0  0  0
 16 62  1  0  0  0  0
 19 63  1  0  0  0  0
 19 64  1  0  0  0  0
 23 65  1  0  0  0  0
 25 66  1  0  0  0  0
 25 67  1  0  0  0  0
 25 68  1  0  0  0  0
 28 69  1  0  0  0  0
 28 70  1  0  0  0  0
 30 71  1  0  0  0  0
 30 72  1  0  0  0  0
 30 73  1  0  0  0  0
 31 74  1  0  0  0  0
 31 75  1  0  0  0  0
 32 76  1  0  0  0  0
 32 77  1  0  0  0  0
 34 78  1  0  0  0  0
 34 79  1  0  0  0  0
 36 80  1  0  0  0  0
 36 81  1  0  0  0  0
 37 82  1  0  0  0  0
 37 83  1  0  0  0  0
 38 84  1  0  0  0  0
 39 85  1  0  0  0  0
 41 86  1  0  0  0  0
 41 87  1  0  0  0  0
 41 88  1  0  0  0  0
 42 89  1  0  0  0  0
 42 90  1  0  0  0  0
 43 91  1  0  0  0  0
M  CHG  1  24   1
M  END
>  <energy>
268.78064591530722

$$$$
