CC(=O)C1C2(CN=c3cc[nH]c(=N)[nH]3)CC3CC(C)CC1(C3)C2
                    3D

 49 52  0  0  0  0  0  0  0  0999 V2000
    3.2490   -2.6019   -0.8293 C   0  0  0  0  0  0  0  0  0  0  0  0
    2.2361   -1.5808   -1.2866 C   0  0  0  0  0  0  0  0  0  0  0  0
    2.1779   -1.2748   -2.4842 O   0  0  0  0  0  0  0  0  0  0  0  0
    1.2909   -1.0099   -0.2009 C   0  0  0  0  0  0  0  0  0  0  0  0
    0.3747    0.2838   -0.6241 C   0  0  0  0  0  0  0  0  0  0  0  0
   -0.7970   -0.0447   -1.5555 C   0  0  0  0  0  0  0  0  0  0  0  0
   -1.8329   -0.7709   -0.8188 N   0  0  0  0  0  0  0  0  0  0  0  0
   -2.9411   -1.0762   -1.4133 C   0  0  0  0  0  0  0  0  0  0  0  0
   -3.2512   -0.8286   -2.8629 C   0  0  0  0  0  0  0  0  0  0  0  0
   -4.5016   -1.1443   -3.2297 C   0  0  0  0  0  0  0  0  0  0  0  0
   -5.4357   -1.6578   -2.3621 N   0  0  0  0  0  0  0  0  0  0  0  0
   -5.2091   -1.9286   -1.0420 C   0  0  0  0  0  0  0  0  0  0  0  0
   -6.1481   -2.3798   -0.2821 N   0  0  0  0  0  0  0  0  0  0  0  0
   -3.9297   -1.6592   -0.6504 N   0  0  0  0  0  0  0  0  0  0  0  0
    1.0063    1.6994   -0.9548 C   0  0  0  0  0  0  0  0  0  0  0  0
    2.1513    2.1236    0.0393 C   0  0  0  0  0  0  0  0  0  0  0  0
    1.7502    2.6776    1.4488 C   0  0  0  0  0  0  0  0  0  0  0  0
    2.0260    1.7228    2.7001 C   0  0  0  0  0  0  0  0  0  0  0  0
    1.1006    2.0921    3.8618 C   0  0  0  0  0  0  0  0  0  0  0  0
    1.9770    0.1613    2.4314 C   0  0  0  0  0  0  0  0  0  0  0  0
    1.7809   -0.0156    0.9427 C   0  0  0  0  0  0  0  0  0  0  0  0
    2.8898    0.8457    0.2770 C   0  0  0  0  0  0  0  0  0  0  0  0
    0.1582    0.3342    0.8850 C   0  0  0  0  0  0  0  0  0  0  0  0
    3.9833   -2.7712   -1.6229 H   0  0  0  0  0  0  0  0  0  0  0  0
    2.7372   -3.5406   -0.5997 H   0  0  0  0  0  0  0  0  0  0  0  0
    3.7756   -2.2322    0.0542 H   0  0  0  0  0  0  0  0  0  0  0  0
    0.6991   -1.8531    0.1974 H   0  0  0  0  0  0  0  0  0  0  0  0
   -0.4368   -0.6397   -2.4057 H   0  0  0  0  0  0  0  0  0  0  0  0
   -1.2222    0.8879   -1.9517 H   0  0  0  0  0  0  0  0  0  0  0  0
   -2.5133   -0.4305   -3.5401 H   0  0  0  0  0  0  0  0  0  0  0  0
   -4.8550   -1.0142   -4.2483 H   0  0  0  0  0  0  0  0  0  0  0  0
   -6.3801   -1.8154   -2.6915 H   0  0  0  0  0  0  0  0  0  0  0  0
   -5.7975   -2.5019    0.6705 H   0  0  0  0  0  0  0  0  0  0  0  0
   -3.6771   -1.8065    0.3146 H   0  0  0  0  0  0  0  0  0  0  0  0
    0.2301    2.4739   -0.9609 H   0  0  0  0  0  0  0  0  0  0  0  0
    1.4268    1.6506   -1.9682 H   0  0  0  0  0  0  0  0  0  0  0  0
    2.7812    2.8698   -0.4589 H   0  0  0  0  0  0  0  0  0  0  0  0
    2.3367    3.5898    1.6249 H   0  0  0  0  0  0  0  0  0  0  0  0
    0.7149    3.0347    1.4371 H   0  0  0  0  0  0  0  0  0  0  0  0
    3.0487    1.9464    3.0393 H   0  0  0  0  0  0  0  0  0  0  0  0
    1.1732    3.1570    4.1047 H   0  0  0  0  0  0  0  0  0  0  0  0
    1.3592    1.5266    4.7637 H   0  0  0  0  0  0  0  0  0  0  0  0
    0.0549    1.8726    3.6229 H   0  0  0  0  0  0  0  0  0  0  0  0
    2.9226   -0.2909    2.7535 H   0  0  0  0  0  0  0  0  0  0  0  0
    1.1978   -0.3309    3.0235 H   0  0  0  0  0  0  0  0  0  0  0  0
    3.2858    0.4530   -0.6617 H   0  0  0  0  0  0  0  0  0  0  0  0
    3.7724    0.9807    0.9184 H   0  0  0  0  0  0  0  0  0  0  0  0
   -0.4804   -0.4482    1.3277 H   0  0  0  0  0  0  0  0  0  0  0  0
   -0.2597    1.2650    1.2677 H   0  0  0  0  0  0  0  0  0  0  0  0
  2  1  1  0  0  0  0
  3  2  2  0  0  0  0
  4  2  1  0  0  0  0
  5  4  1  0  0  0  0
  6  5  1  0  0  0  0
  7  6  1  0  0  0  0
  8  7  2  0  0  0  0
  9  8  1  0  0  0  0
 10  9  2  0  0  0  0
 11 10  1  0  0  0  0
 12 11  1  0  0  0  0
 13 12  2  0  0  0  0
 14 12  1  0  0  0  0
 14  8  1  0  0  0  0
 15  5  1  0  0  0  0
 16 15  1  0  0  0  0
 17 16  1  0  0  0  0
 18 17  1  0  0  0  0
 19 18  1  0  0  0  0
 20 18  1  0  0  0  0
 21 20  1  0  0  0  0
 21  4  1  0  0  0  0
 22 21  1  0  0  0  0
 22 16  1  0  0  0  0
 23 21  1  0  0  0  0
 23  5  1  0  0  0  0
  1 24  1  0  0  0  0
  1 25  1  0  0  0  0
  1 26  1  0  0  0  0
  4 27  1  0  0  0  0
  6 28  1  0  0  0  0
  6 29  1  0  0  0  0
  9 30  1  0  0  0  0
 10 31  1  0  0  0  0
 11 32  1  0  0  0  0
 13 33  1  0  0  0  0
 14 34  1  0  0  0  0
 15 35  1  0  0  0  0
 15 36  1  0  0  0  0
 16 37  1  0  0  0  0
 17 38  1  0  0  0  0
 17 39  1  0  0  0  0
 18 40  1  0  0  0  0
 19 41  1  0  0  0  0
 19 42  1  0  0  0  0
 19 43  1  0  0  0  0
 20 44  1  0  0  0  0
 20 45  1  0  0  0  0
 22 46  1  0  0  0  0
 22 47  1  0  0  0  0
 23 48  1  0  0  0  0
 23 49  1  0  0  0  0
M  END
>  <energy>
-9.349264561778341

$$$$
