CCCCCOC(=O)NC(CC=CCCCC(=O)O)C(=O)C1CC23C=C(N(C(C)=O)C2=O)C2(CCC2O1)CCN(C)C3
                    3D

 87 90  0  0  0  0  0  0  0  0999 V2000
   -2.6984   -3.7262   -4.3067 C   0  0  0  0  0  0  0  0  0  0  0  0
   -3.4410   -2.9553   -3.2245 C   0  0  0  0  0  0  0  0  0  0  0  0
   -2.9328   -3.2863   -1.8173 C   0  0  0  0  0  0  0  0  0  0  0  0
   -3.9193   -2.8759   -0.7121 C   0  0  0  0  0  0  0  0  0  0  0  0
   -4.1760   -1.3700   -0.6042 C   0  0  0  0  0  0  0  0  0  0  0  0
   -3.3786   -0.7659    0.4319 O   0  0  0  0  0  0  0  0  0  0  0  0
   -3.9280   -0.7606    1.6768 C   0  0  0  0  0  0  0  0  0  0  0  0
   -4.9795   -1.3049    1.9773 O   0  0  0  0  0  0  0  0  0  0  0  0
   -3.1922   -0.0778    2.6009 N   0  0  0  0  0  0  0  0  0  0  0  0
   -1.9555    0.6730    2.3625 C   0  0  0  0  0  0  0  0  0  0  0  0
   -2.1447    2.1754    2.6197 C   0  0  0  0  0  0  0  0  0  0  0  0
   -2.7913    2.8125    1.4177 C   0  0  0  0  0  0  0  0  0  0  0  0
   -2.0848    3.2074    0.3483 C   0  0  0  0  0  0  0  0  0  0  0  0
   -2.7175    3.6564   -0.9382 C   0  0  0  0  0  0  0  0  0  0  0  0
   -2.2181    5.0145   -1.4470 C   0  0  0  0  0  0  0  0  0  0  0  0
   -0.7184    5.1118   -1.7352 C   0  0  0  0  0  0  0  0  0  0  0  0
   -0.2949    4.3064   -2.9327 C   0  0  0  0  0  0  0  0  0  0  0  0
   -1.0117    3.7386   -3.7364 O   0  0  0  0  0  0  0  0  0  0  0  0
    1.0441    4.3093   -3.0835 O   0  0  0  0  0  0  0  0  0  0  0  0
   -0.8270    0.1197    3.2382 C   0  0  0  0  0  0  0  0  0  0  0  0
   -1.0720   -0.4503    4.3056 O   0  0  0  0  0  0  0  0  0  0  0  0
    0.6339    0.4005    2.7947 C   0  0  0  0  0  0  0  0  0  0  0  0
    1.6474   -0.6848    3.4231 C   0  0  0  0  0  0  0  0  0  0  0  0
    2.7215   -1.1044    2.4434 C   0  0  0  0  0  0  0  0  0  0  0  0
    1.7991   -1.9106    1.5254 C   0  0  0  0  0  0  0  0  0  0  0  0
    2.3597   -2.0356    0.3270 C   0  0  0  0  0  0  0  0  0  0  0  0
    3.6789   -2.3312    0.6880 N   0  0  0  0  0  0  0  0  0  0  0  0
    4.4591   -3.2649    0.0527 C   0  0  0  0  0  0  0  0  0  0  0  0
    3.7620   -4.3996   -0.6626 C   0  0  0  0  0  0  0  0  0  0  0  0
    5.6898   -3.1872    0.0255 O   0  0  0  0  0  0  0  0  0  0  0  0
    3.7419   -2.2038    2.1420 C   0  0  0  0  0  0  0  0  0  0  0  0
    4.4810   -2.7613    2.9331 O   0  0  0  0  0  0  0  0  0  0  0  0
    1.9567   -0.7564   -0.4476 C   0  0  0  0  0  0  0  0  0  0  0  0
    0.9235   -0.9561   -1.6193 C   0  0  0  0  0  0  0  0  0  0  0  0
    0.1640    0.3207   -1.0913 C   0  0  0  0  0  0  0  0  0  0  0  0
    0.5835   -0.1282    0.3100 C   0  0  0  0  0  0  0  0  0  0  0  0
    0.7705    0.8082    1.4069 O   0  0  0  0  0  0  0  0  0  0  0  0
    3.1091    0.0923   -1.0270 C   0  0  0  0  0  0  0  0  0  0  0  0
    4.1511    0.5995   -0.0451 C   0  0  0  0  0  0  0  0  0  0  0  0
    3.5125    1.0993    1.1714 N   0  0  0  0  0  0  0  0  0  0  0  0
    4.0641    2.4146    1.5195 C   0  0  0  0  0  0  0  0  0  0  0  0
    3.6982    0.1489    2.2746 C   0  0  0  0  0  0  0  0  0  0  0  0
   -1.6221   -3.5347   -4.2657 H   0  0  0  0  0  0  0  0  0  0  0  0
   -2.8590   -4.8051   -4.2021 H   0  0  0  0  0  0  0  0  0  0  0  0
   -3.0655   -3.4276   -5.2954 H   0  0  0  0  0  0  0  0  0  0  0  0
   -3.3214   -1.8820   -3.4127 H   0  0  0  0  0  0  0  0  0  0  0  0
   -4.5101   -3.1835   -3.3045 H   0  0  0  0  0  0  0  0  0  0  0  0
   -1.9587   -2.8147   -1.6493 H   0  0  0  0  0  0  0  0  0  0  0  0
   -2.7743   -4.3684   -1.7379 H   0  0  0  0  0  0  0  0  0  0  0  0
   -3.5545   -3.2697    0.2433 H   0  0  0  0  0  0  0  0  0  0  0  0
   -4.8706   -3.3767   -0.9215 H   0  0  0  0  0  0  0  0  0  0  0  0
   -5.2429   -1.1804   -0.4221 H   0  0  0  0  0  0  0  0  0  0  0  0
   -3.9302   -0.8445   -1.5302 H   0  0  0  0  0  0  0  0  0  0  0  0
   -3.5247   -0.1696    3.5535 H   0  0  0  0  0  0  0  0  0  0  0  0
   -1.6676    0.5105    1.3259 H   0  0  0  0  0  0  0  0  0  0  0  0
   -1.1860    2.6680    2.8298 H   0  0  0  0  0  0  0  0  0  0  0  0
   -2.7721    2.3515    3.5026 H   0  0  0  0  0  0  0  0  0  0  0  0
   -3.8812    2.8545    1.4115 H   0  0  0  0  0  0  0  0  0  0  0  0
   -0.9980    3.1091    0.3591 H   0  0  0  0  0  0  0  0  0  0  0  0
   -3.8094    3.7179   -0.8135 H   0  0  0  0  0  0  0  0  0  0  0  0
   -2.5361    2.8798   -1.6903 H   0  0  0  0  0  0  0  0  0  0  0  0
   -2.7671    5.2471   -2.3681 H   0  0  0  0  0  0  0  0  0  0  0  0
   -2.4904    5.7893   -0.7179 H   0  0  0  0  0  0  0  0  0  0  0  0
   -0.4794    6.1580   -1.9611 H   0  0  0  0  0  0  0  0  0  0  0  0
   -0.1192    4.8121   -0.8713 H   0  0  0  0  0  0  0  0  0  0  0  0
    1.1904    3.8411   -3.9325 H   0  0  0  0  0  0  0  0  0  0  0  0
    0.8833    1.3307    3.3224 H   0  0  0  0  0  0  0  0  0  0  0  0
    1.0995   -1.5465    3.8233 H   0  0  0  0  0  0  0  0  0  0  0  0
    2.0897   -0.2575    4.3339 H   0  0  0  0  0  0  0  0  0  0  0  0
    1.3435   -2.7969    1.9780 H   0  0  0  0  0  0  0  0  0  0  0  0
    2.6734   -4.3221   -0.6438 H   0  0  0  0  0  0  0  0  0  0  0  0
    4.0931   -4.4282   -1.7055 H   0  0  0  0  0  0  0  0  0  0  0  0
    4.0416   -5.3347   -0.1665 H   0  0  0  0  0  0  0  0  0  0  0  0
    0.3341   -1.8783   -1.5541 H   0  0  0  0  0  0  0  0  0  0  0  0
    1.2950   -0.8761   -2.6448 H   0  0  0  0  0  0  0  0  0  0  0  0
   -0.9124    0.3137   -1.2858 H   0  0  0  0  0  0  0  0  0  0  0  0
    0.5609    1.2942   -1.3952 H   0  0  0  0  0  0  0  0  0  0  0  0
   -0.1461   -0.8978    0.6188 H   0  0  0  0  0  0  0  0  0  0  0  0
    3.6318   -0.4797   -1.8075 H   0  0  0  0  0  0  0  0  0  0  0  0
    2.7089    0.9756   -1.5430 H   0  0  0  0  0  0  0  0  0  0  0  0
    4.7132    1.3934   -0.5601 H   0  0  0  0  0  0  0  0  0  0  0  0
    4.9129   -0.1640    0.1547 H   0  0  0  0  0  0  0  0  0  0  0  0
    3.8865    3.1279    0.7060 H   0  0  0  0  0  0  0  0  0  0  0  0
    3.5557    2.8206    2.4032 H   0  0  0  0  0  0  0  0  0  0  0  0
    5.1412    2.3692    1.7208 H   0  0  0  0  0  0  0  0  0  0  0  0
    3.6146    0.7146    3.2141 H   0  0  0  0  0  0  0  0  0  0  0  0
    4.7600   -0.1516    2.3161 H   0  0  0  0  0  0  0  0  0  0  0  0
  2  1  1  0  0  0  0
  3  2  1  0  0  0  0
  4  3  1  0  0  0  0
  5  4  1  0  0  0  0
  6  5  1  0  0  0  0
  7  6  1  0  0  0  0
  8  7  2  0  0  0  0
  9  7  1  0  0  0  0
 10  9  1  0  0  0  0
 11 10  1  0  0  0  0
 12 11  1  0  0  0  0
 13 12  2  0  0  0  0
 14 13  1  0  0  0  0
 15 14  1  0  0  0  0
 16 15  1  0  0  0  0
 17 16  1  0  0  0  0
 18 17  2  0  0  0  0
 19 17  1  0  0  0  0
 20 10  1  0  0  0  0
 21 20  2  0  0  0  0
 22 20  1  0  0  0  0
 23 22  1  0  0  0  0
 24 23  1  0  0  0  0
 25 24  1  0  0  0  0
 26 25  2  0  0  0  0
 27 26  1  0  0  0  0
 28 27  1  0  0  0  0
 29 28  1  0  0  0  0
 30 28  2  0  0  0  0
 31 27  1  0  0  0  0
 31 24  1  0  0  0  0
 32 31  2  0  0  0  0
 33 26  1  0  0  0  0
 34 33  1  0  0  0  0
 35 34  1  0  0  0  0
 36 35  1  0  0  0  0
 36 33  1  0  0  0  0
 37 36  1  0  0  0  0
 37 22  1  0  0  0  0
 38 33  1  0  0  0  0
 39 38  1  0  0  0  0
 40 39  1  0  0  0  0
 41 40  1  0  0  0  0
 42 40  1  0  0  0  0
 42 24  1  0  0  0  0
  1 43  1  0  0  0  0
  1 44  1  0  0  0  0
  1 45  1  0  0  0  0
  2 46  1  0  0  0  0
  2 47  1  0  0  0  0
  3 48  1  0  0  0  0
  3 49  1  0  0  0  0
  4 50  1  0  0  0  0
  4 51  1  0  0  0  0
  5 52  1  0  0  0  0
  5 53  1  0  0  0  0
  9 54  1  0  0  0  0
 10 55  1  0  0  0  0
 11 56  1  0  0  0  0
 11 57  1  0  0  0  0
 12 58  1  0  0  0  0
 13 59  1  0  0  0  0
 14 60  1  0  0  0  0
 14 61  1  0  0  0  0
 15 62  1  0  0  0  0
 15 63  1  0  0  0  0
 16 64  1  0  0  0  0
 16 65  1  0  0  0  0
 19 66  1  0  0  0  0
 22 67  1  0  0  0  0
 23 68  1  0  0  0  0
 23 69  1  0  0  0  0
 25 70  1  0  0  0  0
 29 71  1  0  0  0  0
 29 72  1  0  0  0  0
 29 73  1  0  0  0  0
 34 74  1  0  0  0  0
 34 75  1  0  0  0  0
 35 76  1  0  0  0  0
 35 77  1  0  0  0  0
 36 78  1  0  0  0  0
 38 79  1  0  0  0  0
 38 80  1  0  0  0  0
 39 81  1  0  0  0  0
 39 82  1  0  0  0  0
 41 83  1  0  0  0  0
 41 84  1  0  0  0  0
 41 85  1  0  0  0  0
 42 86  1  0  0  0  0
 42 87  1  0  0  0  0
M  END
>  <energy>
196.36047307886031

$$$$
