C=C1C2=C3CC(OC4CC(O)CCC(C)O4)C(O)C2(CCC2(OO)C4C(O)C(CC1C)C42)CC3O
                    3D

 75 80  0  0  0  0  0  0  0  0999 V2000
   -2.6141   -0.6787    2.8779 C   0  0  0  0  0  0  0  0  0  0  0  0
   -1.8619   -0.2975    1.8107 C   0  0  0  0  0  0  0  0  0  0  0  0
   -1.1030    0.9484    1.9110 C   0  0  0  0  0  0  0  0  0  0  0  0
   -0.1234    1.1618    2.8252 C   0  0  0  0  0  0  0  0  0  0  0  0
    1.1607    0.4595    2.4100 C   0  0  0  0  0  0  0  0  0  0  0  0
    1.5882    0.9098    0.9769 C   0  0  0  0  0  0  0  0  0  0  0  0
    1.8670   -0.2506    0.1643 O   0  0  0  0  0  0  0  0  0  0  0  0
    3.2031   -0.7531    0.2470 C   0  0  0  0  0  0  0  0  0  0  0  0
    4.0588   -0.0520   -0.8149 C   0  0  0  0  0  0  0  0  0  0  0  0
    3.7725   -0.4871   -2.2525 C   0  0  0  0  0  0  0  0  0  0  0  0
    4.2620    0.5284   -3.1393 O   0  0  0  0  0  0  0  0  0  0  0  0
    4.5179   -1.7671   -2.6322 C   0  0  0  0  0  0  0  0  0  0  0  0
    4.0270   -3.0048   -1.9006 C   0  0  0  0  0  0  0  0  0  0  0  0
    4.1626   -2.9139   -0.3759 C   0  0  0  0  0  0  0  0  0  0  0  0
    4.0295   -4.3167    0.2139 C   0  0  0  0  0  0  0  0  0  0  0  0
    3.0808   -2.1642    0.1553 O   0  0  0  0  0  0  0  0  0  0  0  0
    0.5112    1.7282    0.1689 C   0  0  0  0  0  0  0  0  0  0  0  0
    1.1221    2.9288   -0.3416 O   0  0  0  0  0  0  0  0  0  0  0  0
   -0.8635    2.0595    0.8903 C   0  0  0  0  0  0  0  0  0  0  0  0
   -1.9213    2.4299   -0.1734 C   0  0  0  0  0  0  0  0  0  0  0  0
   -3.3695    2.2984    0.2754 C   0  0  0  0  0  0  0  0  0  0  0  0
   -4.3248    1.7744   -0.7663 C   0  0  0  0  0  0  0  0  0  0  0  0
   -5.5428    2.5586   -0.8328 O   0  0  0  0  0  0  0  0  0  0  0  0
   -5.2158    3.7051   -1.6671 O   0  0  0  0  0  0  0  0  0  0  0  0
   -4.0161    0.9729   -2.0002 C   0  0  0  0  0  0  0  0  0  0  0  0
   -3.0152   -0.1174   -2.1798 C   0  0  0  0  0  0  0  0  0  0  0  0
   -2.9784   -0.7331   -3.4846 O   0  0  0  0  0  0  0  0  0  0  0  0
   -3.7678   -0.9014   -1.0869 C   0  0  0  0  0  0  0  0  0  0  0  0
   -3.0938   -1.7181    0.0095 C   0  0  0  0  0  0  0  0  0  0  0  0
   -1.7435   -1.2055    0.5861 C   0  0  0  0  0  0  0  0  0  0  0  0
   -0.9243   -2.4699    0.9717 C   0  0  0  0  0  0  0  0  0  0  0  0
   -4.5859    0.2965   -0.7732 C   0  0  0  0  0  0  0  0  0  0  0  0
   -0.7239    3.2526    1.8757 C   0  0  0  0  0  0  0  0  0  0  0  0
    0.0277    2.6589    3.0569 C   0  0  0  0  0  0  0  0  0  0  0  0
    1.3738    3.0938    3.0332 O   0  0  0  0  0  0  0  0  0  0  0  0
   -2.6806   -0.0924    3.7913 H   0  0  0  0  0  0  0  0  0  0  0  0
   -3.1726   -1.6115    2.8784 H   0  0  0  0  0  0  0  0  0  0  0  0
    1.0429   -0.6279    2.4759 H   0  0  0  0  0  0  0  0  0  0  0  0
    1.9652    0.7015    3.1159 H   0  0  0  0  0  0  0  0  0  0  0  0
    2.5055    1.5087    1.0474 H   0  0  0  0  0  0  0  0  0  0  0  0
    3.6071   -0.5375    1.2444 H   0  0  0  0  0  0  0  0  0  0  0  0
    3.9143    1.0334   -0.7395 H   0  0  0  0  0  0  0  0  0  0  0  0
    5.1207   -0.2197   -0.5989 H   0  0  0  0  0  0  0  0  0  0  0  0
    2.6959   -0.5988   -2.4326 H   0  0  0  0  0  0  0  0  0  0  0  0
    3.6146    1.2567   -3.1293 H   0  0  0  0  0  0  0  0  0  0  0  0
    5.5976   -1.6402   -2.4648 H   0  0  0  0  0  0  0  0  0  0  0  0
    4.4198   -1.9361   -3.7117 H   0  0  0  0  0  0  0  0  0  0  0  0
    4.5944   -3.8637   -2.2821 H   0  0  0  0  0  0  0  0  0  0  0  0
    2.9721   -3.1685   -2.1627 H   0  0  0  0  0  0  0  0  0  0  0  0
    5.1260   -2.4951   -0.0626 H   0  0  0  0  0  0  0  0  0  0  0  0
    4.1255   -4.2846    1.3046 H   0  0  0  0  0  0  0  0  0  0  0  0
    3.0374   -4.7318   -0.0026 H   0  0  0  0  0  0  0  0  0  0  0  0
    4.7891   -4.9972   -0.1873 H   0  0  0  0  0  0  0  0  0  0  0  0
    0.2779    1.1465   -0.7327 H   0  0  0  0  0  0  0  0  0  0  0  0
    1.5053    3.4019    0.4224 H   0  0  0  0  0  0  0  0  0  0  0  0
   -1.7340    1.8707   -1.0841 H   0  0  0  0  0  0  0  0  0  0  0  0
   -1.7627    3.4682   -0.5012 H   0  0  0  0  0  0  0  0  0  0  0  0
   -3.4755    1.6745    1.1636 H   0  0  0  0  0  0  0  0  0  0  0  0
   -3.7020    3.2930    0.6022 H   0  0  0  0  0  0  0  0  0  0  0  0
   -5.6146    3.3629   -2.4869 H   0  0  0  0  0  0  0  0  0  0  0  0
   -4.6482    1.0735   -2.8741 H   0  0  0  0  0  0  0  0  0  0  0  0
   -1.9946    0.1431   -1.9074 H   0  0  0  0  0  0  0  0  0  0  0  0
   -2.2993   -1.4269   -3.4036 H   0  0  0  0  0  0  0  0  0  0  0  0
   -4.4615   -1.6280   -1.5662 H   0  0  0  0  0  0  0  0  0  0  0  0
   -3.8254   -1.9185    0.8032 H   0  0  0  0  0  0  0  0  0  0  0  0
   -2.8995   -2.7074   -0.4326 H   0  0  0  0  0  0  0  0  0  0  0  0
   -1.1651   -0.6927   -0.1894 H   0  0  0  0  0  0  0  0  0  0  0  0
   -0.6454   -3.0421    0.0775 H   0  0  0  0  0  0  0  0  0  0  0  0
   -1.5051   -3.1463    1.6133 H   0  0  0  0  0  0  0  0  0  0  0  0
   -0.0009   -2.2229    1.4998 H   0  0  0  0  0  0  0  0  0  0  0  0
   -5.6283    0.0068   -0.7149 H   0  0  0  0  0  0  0  0  0  0  0  0
   -0.2258    4.1223    1.4320 H   0  0  0  0  0  0  0  0  0  0  0  0
   -1.7169    3.5918    2.2039 H   0  0  0  0  0  0  0  0  0  0  0  0
   -0.4240    2.9772    4.0015 H   0  0  0  0  0  0  0  0  0  0  0  0
    1.6953    3.0228    3.9510 H   0  0  0  0  0  0  0  0  0  0  0  0
  2  1  2  0  0  0  0
  3  2  1  0  0  0  0
  4  3  2  0  0  0  0
  5  4  1  0  0  0  0
  6  5  1  0  0  0  0
  7  6  1  0  0  0  0
  8  7  1  0  0  0  0
  9  8  1  0  0  0  0
 10  9  1  0  0  0  0
 11 10  1  0  0  0  0
 12 10  1  0  0  0  0
 13 12  1  0  0  0  0
 14 13  1  0  0  0  0
 15 14  1  0  0  0  0
 16 14  1  0  0  0  0
 16  8  1  0  0  0  0
 17  6  1  0  0  0  0
 18 17  1  0  0  0  0
 19 17  1  0  0  0  0
 19  3  1  0  0  0  0
 20 19  1  0  0  0  0
 21 20  1  0  0  0  0
 22 21  1  0  0  0  0
 23 22  1  0  0  0  0
 24 23  1  0  0  0  0
 25 22  1  0  0  0  0
 26 25  1  0  0  0  0
 27 26  1  0  0  0  0
 28 26  1  0  0  0  0
 29 28  1  0  0  0  0
 30 29  1  0  0  0  0
 30  2  1  0  0  0  0
 31 30  1  0  0  0  0
 32 28  1  0  0  0  0
 32 25  1  0  0  0  0
 32 22  1  0  0  0  0
 33 19  1  0  0  0  0
 34 33  1  0  0  0  0
 34  4  1  0  0  0  0
 35 34  1  0  0  0  0
  1 36  1  0  0  0  0
  1 37  1  0  0  0  0
  5 38  1  0  0  0  0
  5 39  1  0  0  0  0
  6 40  1  0  0  0  0
  8 41  1  0  0  0  0
  9 42  1  0  0  0  0
  9 43  1  0  0  0  0
 10 44  1  0  0  0  0
 11 45  1  0  0  0  0
 12 46  1  0  0  0  0
 12 47  1  0  0  0  0
 13 48  1  0  0  0  0
 13 49  1  0  0  0  0
 14 50  1  0  0  0  0
 15 51  1  0  0  0  0
 15 52  1  0  0  0  0
 15 53  1  0  0  0  0
 17 54  1  0  0  0  0
 18 55  1  0  0  0  0
 20 56  1  0  0  0  0
 20 57  1  0  0  0  0
 21 58  1  0  0  0  0
 21 59  1  0  0  0  0
 24 60  1  0  0  0  0
 25 61  1  0  0  0  0
 26 62  1  0  0  0  0
 27 63  1  0  0  0  0
 28 64  1  0  0  0  0
 29 65  1  0  0  0  0
 29 66  1  0  0  0  0
 30 67  1  0  0  0  0
 31 68  1  0  0  0  0
 31 69  1  0  0  0  0
 31 70  1  0  0  0  0
 32 71  1  0  0  0  0
 33 72  1  0  0  0  0
 33 73  1  0  0  0  0
 34 74  1  0  0  0  0
 35 75  1  0  0  0  0
M  END
>  <energy>
164.09543750819529

$$$$
