CC(C)C#CC1Cc2c3c(c(Br)c(O)c2OCC(=O)O)C(=NCC3)S1
                    3D

 43 45  0  0  0  0  0  0  0  0999 V2000
   -4.5677    1.7769    0.1563 C   0  0  0  0  0  0  0  0  0  0  0  0
   -3.3921    1.3361   -0.7115 C   0  0  0  0  0  0  0  0  0  0  0  0
   -3.3480    2.1685   -1.9930 C   0  0  0  0  0  0  0  0  0  0  0  0
   -2.0932    1.4190    0.0027 C   0  0  0  0  0  0  0  0  0  0  0  0
   -0.9840    1.5019    0.4613 C   0  0  0  0  0  0  0  0  0  0  0  0
    0.4379    1.6668    0.8981 C   0  0  0  0  0  0  0  0  0  0  0  0
    1.0005    0.3390    1.5725 C   0  0  0  0  0  0  0  0  0  0  0  0
    1.5302   -0.7934    0.6343 C   0  0  0  0  0  0  0  0  0  0  0  0
    2.6985   -0.4744   -0.0257 C   0  0  0  0  0  0  0  0  0  0  0  0
    2.4019    0.1998   -1.1973 C   0  0  0  0  0  0  0  0  0  0  0  0
    1.3357   -0.2047   -2.0091 C   0  0  0  0  0  0  0  0  0  0  0  0
    1.0261    0.5939   -3.6976 Br  0  0  0  0  0  0  0  0  0  0  0  0
    0.4558   -1.1509   -1.4881 C   0  0  0  0  0  0  0  0  0  0  0  0
   -0.5853   -1.6442   -2.2228 O   0  0  0  0  0  0  0  0  0  0  0  0
    0.5444   -1.4413   -0.1259 C   0  0  0  0  0  0  0  0  0  0  0  0
   -0.4704   -2.1363    0.4639 O   0  0  0  0  0  0  0  0  0  0  0  0
    0.0688   -3.2230    1.2299 C   0  0  0  0  0  0  0  0  0  0  0  0
   -1.1199   -4.0758    1.6214 C   0  0  0  0  0  0  0  0  0  0  0  0
   -1.1618   -5.2892    1.5015 O   0  0  0  0  0  0  0  0  0  0  0  0
   -2.1403   -3.3498    2.1565 O   0  0  0  0  0  0  0  0  0  0  0  0
    2.6901    1.6157   -0.8463 C   0  0  0  0  0  0  0  0  0  0  0  0
    3.8564    2.0297   -0.4456 N   0  0  0  0  0  0  0  0  0  0  0  0
    4.7778    0.8897   -0.2199 C   0  0  0  0  0  0  0  0  0  0  0  0
    4.0306   -0.1709    0.6313 C   0  0  0  0  0  0  0  0  0  0  0  0
    1.3098    2.6296   -0.4967 S   0  0  0  0  0  0  0  0  0  0  0  0
   -5.5060    1.7035   -0.4092 H   0  0  0  0  0  0  0  0  0  0  0  0
   -4.4618    2.8155    0.4890 H   0  0  0  0  0  0  0  0  0  0  0  0
   -4.6683    1.1442    1.0448 H   0  0  0  0  0  0  0  0  0  0  0  0
   -3.5610    0.2900   -0.9883 H   0  0  0  0  0  0  0  0  0  0  0  0
   -3.0650    3.2097   -1.7937 H   0  0  0  0  0  0  0  0  0  0  0  0
   -4.3268    2.1719   -2.4894 H   0  0  0  0  0  0  0  0  0  0  0  0
   -2.6158    1.7591   -2.6999 H   0  0  0  0  0  0  0  0  0  0  0  0
    0.4196    2.4043    1.7123 H   0  0  0  0  0  0  0  0  0  0  0  0
    1.8105    0.6114    2.2572 H   0  0  0  0  0  0  0  0  0  0  0  0
    0.2298   -0.0906    2.2268 H   0  0  0  0  0  0  0  0  0  0  0  0
   -1.2116   -2.0455   -1.5948 H   0  0  0  0  0  0  0  0  0  0  0  0
    0.5529   -2.8544    2.1398 H   0  0  0  0  0  0  0  0  0  0  0  0
    0.7726   -3.8249    0.6387 H   0  0  0  0  0  0  0  0  0  0  0  0
   -1.9692   -2.3824    2.1260 H   0  0  0  0  0  0  0  0  0  0  0  0
    5.1181    0.4844   -1.1801 H   0  0  0  0  0  0  0  0  0  0  0  0
    5.6626    1.2494    0.3204 H   0  0  0  0  0  0  0  0  0  0  0  0
    4.6236   -1.0881    0.7129 H   0  0  0  0  0  0  0  0  0  0  0  0
    3.8940    0.2297    1.6375 H   0  0  0  0  0  0  0  0  0  0  0  0
  2  1  1  0  0  0  0
  3  2  1  0  0  0  0
  4  2  1  0  0  0  0
  5  4  3  0  0  0  0
  6  5  1  0  0  0  0
  7  6  1  0  0  0  0
  8  7  1  0  0  0  0
  9  8  2  0  0  0  0
 10  9  1  0  0  0  0
 11 10  2  0  0  0  0
 12 11  1  0  0  0  0
 13 11  1  0  0  0  0
 14 13  1  0  0  0  0
 15 13  2  0  0  0  0
 15  8  1  0  0  0  0
 16 15  1  0  0  0  0
 17 16  1  0  0  0  0
 18 17  1  0  0  0  0
 19 18  2  0  0  0  0
 20 18  1  0  0  0  0
 21 10  1  0  0  0  0
 22 21  2  0  0  0  0
 23 22  1  0  0  0  0
 24 23  1  0  0  0  0
 24  9  1  0  0  0  0
 25 21  1  0  0  0  0
 25  6  1  0  0  0  0
  1 26  1  0  0  0  0
  1 27  1  0  0  0  0
  1 28  1  0  0  0  0
  2 29  1  0  0  0  0
  3 30  1  0  0  0  0
  3 31  1  0  0  0  0
  3 32  1  0  0  0  0
  6 33  1  0  0  0  0
  7 34  1  0  0  0  0
  7 35  1  0  0  0  0
 14 36  1  0  0  0  0
 17 37  1  0  0  0  0
 17 38  1  0  0  0  0
 20 39  1  0  0  0  0
 23 40  1  0  0  0  0
 23 41  1  0  0  0  0
 24 42  1  0  0  0  0
 24 43  1  0  0  0  0
M  END
>  <energy>
177.07464450619142

$$$$
