CC1CCC(C)(C)C(CCC2=CC(C)(C)NC(=S)O2)(CCC23C4CC5CCC5C2(C=O)CC3C4)C1
                    3D

 82 87  0  0  0  0  0  0  0  0999 V2000
    1.2028    2.0224    3.2278 C   0  0  0  0  0  0  0  0  0  0  0  0
    1.5966    2.4455    1.8074 C   0  0  0  0  0  0  0  0  0  0  0  0
    3.0506    2.1000    1.5412 C   0  0  0  0  0  0  0  0  0  0  0  0
    3.5009    2.3057    0.1024 C   0  0  0  0  0  0  0  0  0  0  0  0
    2.3931    2.5150   -0.9690 C   0  0  0  0  0  0  0  0  0  0  0  0
    2.0834    4.0412   -1.0339 C   0  0  0  0  0  0  0  0  0  0  0  0
    3.0441    2.1630   -2.3340 C   0  0  0  0  0  0  0  0  0  0  0  0
    1.0653    1.6622   -0.6866 C   0  0  0  0  0  0  0  0  0  0  0  0
    1.2227    0.1265   -0.9759 C   0  0  0  0  0  0  0  0  0  0  0  0
    2.2469   -0.6892   -0.1801 C   0  0  0  0  0  0  0  0  0  0  0  0
    2.0430   -2.1760   -0.3374 C   0  0  0  0  0  0  0  0  0  0  0  0
    1.8337   -3.0149    0.6855 C   0  0  0  0  0  0  0  0  0  0  0  0
    1.6184   -4.4886    0.5021 C   0  0  0  0  0  0  0  0  0  0  0  0
    0.1561   -4.8381    0.8068 C   0  0  0  0  0  0  0  0  0  0  0  0
    2.5435   -5.2700    1.4433 C   0  0  0  0  0  0  0  0  0  0  0  0
    1.9332   -4.8457   -0.8683 N   0  0  0  0  0  0  0  0  0  0  0  0
    2.0435   -3.9726   -1.9100 C   0  0  0  0  0  0  0  0  0  0  0  0
    2.1741   -4.4771   -3.4828 S   0  0  0  0  0  0  0  0  0  0  0  0
    2.0892   -2.6334   -1.6672 O   0  0  0  0  0  0  0  0  0  0  0  0
   -0.1121    2.1931   -1.6234 C   0  0  0  0  0  0  0  0  0  0  0  0
   -1.2682    1.2952   -2.1087 C   0  0  0  0  0  0  0  0  0  0  0  0
   -2.4104    0.9329   -1.1395 C   0  0  0  0  0  0  0  0  0  0  0  0
   -2.9531    1.9508   -0.0841 C   0  0  0  0  0  0  0  0  0  0  0  0
   -2.9463    1.6170    1.3938 C   0  0  0  0  0  0  0  0  0  0  0  0
   -3.5962    0.2529    1.5125 C   0  0  0  0  0  0  0  0  0  0  0  0
   -2.9474   -0.5917    2.6526 C   0  0  0  0  0  0  0  0  0  0  0  0
   -2.0838   -1.2592    1.5559 C   0  0  0  0  0  0  0  0  0  0  0  0
   -3.2319   -0.9299    0.5849 C   0  0  0  0  0  0  0  0  0  0  0  0
   -2.8004   -0.5854   -0.8692 C   0  0  0  0  0  0  0  0  0  0  0  0
   -1.8831   -1.6966   -1.5303 C   0  0  0  0  0  0  0  0  0  0  0  0
   -1.8762   -2.0545   -2.7085 O   0  0  0  0  0  0  0  0  0  0  0  0
   -4.1336   -0.3618   -1.6628 C   0  0  0  0  0  0  0  0  0  0  0  0
   -3.7744    1.0926   -1.8860 C   0  0  0  0  0  0  0  0  0  0  0  0
   -4.3051    2.0350   -0.8154 C   0  0  0  0  0  0  0  0  0  0  0  0
    0.6061    1.8568    0.7914 C   0  0  0  0  0  0  0  0  0  0  0  0
    1.8563    2.4910    3.9706 H   0  0  0  0  0  0  0  0  0  0  0  0
    0.1719    2.3171    3.4509 H   0  0  0  0  0  0  0  0  0  0  0  0
    1.2772    0.9362    3.3517 H   0  0  0  0  0  0  0  0  0  0  0  0
    1.5063    3.5379    1.7796 H   0  0  0  0  0  0  0  0  0  0  0  0
    3.2549    1.0666    1.8403 H   0  0  0  0  0  0  0  0  0  0  0  0
    3.6912    2.7023    2.1992 H   0  0  0  0  0  0  0  0  0  0  0  0
    4.1908    3.1609    0.0823 H   0  0  0  0  0  0  0  0  0  0  0  0
    4.1434    1.4588   -0.1664 H   0  0  0  0  0  0  0  0  0  0  0  0
    1.5094    4.3947   -0.1758 H   0  0  0  0  0  0  0  0  0  0  0  0
    3.0048    4.6342   -1.0763 H   0  0  0  0  0  0  0  0  0  0  0  0
    1.5164    4.3058   -1.9326 H   0  0  0  0  0  0  0  0  0  0  0  0
    3.9231    2.7938   -2.5161 H   0  0  0  0  0  0  0  0  0  0  0  0
    2.3645    2.3154   -3.1767 H   0  0  0  0  0  0  0  0  0  0  0  0
    3.3897    1.1252   -2.3703 H   0  0  0  0  0  0  0  0  0  0  0  0
    1.4053   -0.0229   -2.0481 H   0  0  0  0  0  0  0  0  0  0  0  0
    0.2546   -0.3395   -0.7734 H   0  0  0  0  0  0  0  0  0  0  0  0
    2.1683   -0.4471    0.8811 H   0  0  0  0  0  0  0  0  0  0  0  0
    3.2610   -0.4540   -0.5104 H   0  0  0  0  0  0  0  0  0  0  0  0
    1.8091   -2.6324    1.7033 H   0  0  0  0  0  0  0  0  0  0  0  0
   -0.1249   -4.5563    1.8287 H   0  0  0  0  0  0  0  0  0  0  0  0
   -0.0192   -5.9147    0.6960 H   0  0  0  0  0  0  0  0  0  0  0  0
   -0.5300   -4.3290    0.1202 H   0  0  0  0  0  0  0  0  0  0  0  0
    3.5968   -5.0361    1.2499 H   0  0  0  0  0  0  0  0  0  0  0  0
    2.4246   -6.3511    1.3083 H   0  0  0  0  0  0  0  0  0  0  0  0
    2.3380   -5.0404    2.4950 H   0  0  0  0  0  0  0  0  0  0  0  0
    1.8631   -5.8195   -1.1397 H   0  0  0  0  0  0  0  0  0  0  0  0
   -0.5236    3.1231   -1.2145 H   0  0  0  0  0  0  0  0  0  0  0  0
    0.3564    2.5022   -2.5652 H   0  0  0  0  0  0  0  0  0  0  0  0
   -1.7032    1.8628   -2.9449 H   0  0  0  0  0  0  0  0  0  0  0  0
   -0.8655    0.4044   -2.5982 H   0  0  0  0  0  0  0  0  0  0  0  0
   -2.4475    2.9241   -0.1766 H   0  0  0  0  0  0  0  0  0  0  0  0
   -1.9276    1.6133    1.7822 H   0  0  0  0  0  0  0  0  0  0  0  0
   -3.5053    2.3652    1.9666 H   0  0  0  0  0  0  0  0  0  0  0  0
   -4.6822    0.3602    1.6329 H   0  0  0  0  0  0  0  0  0  0  0  0
   -3.6470   -1.2791    3.1438 H   0  0  0  0  0  0  0  0  0  0  0  0
   -2.3932   -0.0511    3.4252 H   0  0  0  0  0  0  0  0  0  0  0  0
   -1.8824   -2.3230    1.7094 H   0  0  0  0  0  0  0  0  0  0  0  0
   -1.1366   -0.7525    1.3599 H   0  0  0  0  0  0  0  0  0  0  0  0
   -3.9913   -1.7276    0.6082 H   0  0  0  0  0  0  0  0  0  0  0  0
   -1.1938   -2.1979   -0.8293 H   0  0  0  0  0  0  0  0  0  0  0  0
   -5.0721   -0.5329   -1.1221 H   0  0  0  0  0  0  0  0  0  0  0  0
   -4.2046   -0.9302   -2.5987 H   0  0  0  0  0  0  0  0  0  0  0  0
   -3.8091    1.4523   -2.9155 H   0  0  0  0  0  0  0  0  0  0  0  0
   -4.5319    3.0400   -1.1904 H   0  0  0  0  0  0  0  0  0  0  0  0
   -5.1845    1.6829   -0.2678 H   0  0  0  0  0  0  0  0  0  0  0  0
   -0.2506    2.5373    0.8146 H   0  0  0  0  0  0  0  0  0  0  0  0
    0.2240    0.9066    1.1746 H   0  0  0  0  0  0  0  0  0  0  0  0
  2  1  1  0  0  0  0
  3  2  1  0  0  0  0
  4  3  1  0  0  0  0
  5  4  1  0  0  0  0
  6  5  1  0  0  0  0
  7  5  1  0  0  0  0
  8  5  1  0  0  0  0
  9  8  1  0  0  0  0
 10  9  1  0  0  0  0
 11 10  1  0  0  0  0
 12 11  2  0  0  0  0
 13 12  1  0  0  0  0
 14 13  1  0  0  0  0
 15 13  1  0  0  0  0
 16 13  1  0  0  0  0
 17 16  1  0  0  0  0
 18 17  2  0  0  0  0
 19 17  1  0  0  0  0
 19 11  1  0  0  0  0
 20  8  1  0  0  0  0
 21 20  1  0  0  0  0
 22 21  1  0  0  0  0
 23 22  1  0  0  0  0
 24 23  1  0  0  0  0
 25 24  1  0  0  0  0
 26 25  1  0  0  0  0
 27 26  1  0  0  0  0
 28 27  1  0  0  0  0
 28 25  1  0  0  0  0
 29 28  1  0  0  0  0
 29 22  1  0  0  0  0
 30 29  1  0  0  0  0
 31 30  2  0  0  0  0
 32 29  1  0  0  0  0
 33 32  1  0  0  0  0
 33 22  1  0  0  0  0
 34 33  1  0  0  0  0
 34 23  1  0  0  0  0
 35  8  1  0  0  0  0
 35  2  1  0  0  0  0
  1 36  1  0  0  0  0
  1 37  1  0  0  0  0
  1 38  1  0  0  0  0
  2 39  1  0  0  0  0
  3 40  1  0  0  0  0
  3 41  1  0  0  0  0
  4 42  1  0  0  0  0
  4 43  1  0  0  0  0
  6 44  1  0  0  0  0
  6 45  1  0  0  0  0
  6 46  1  0  0  0  0
  7 47  1  0  0  0  0
  7 48  1  0  0  0  0
  7 49  1  0  0  0  0
  9 50  1  0  0  0  0
  9 51  1  0  0  0  0
 10 52  1  0  0  0  0
 10 53  1  0  0  0  0
 12 54  1  0  0  0  0
 14 55  1  0  0  0  0
 14 56  1  0  0  0  0
 14 57  1  0  0  0  0
 15 58  1  0  0  0  0
 15 59  1  0  0  0  0
 15 60  1  0  0  0  0
 16 61  1  0  0  0  0
 20 62  1  0  0  0  0
 20 63  1  0  0  0  0
 21 64  1  0  0  0  0
 21 65  1  0  0  0  0
 23 66  1  0  0  0  0
 24 67  1  0  0  0  0
 24 68  1  0  0  0  0
 25 69  1  0  0  0  0
 26 70  1  0  0  0  0
 26 71  1  0  0  0  0
 27 72  1  0  0  0  0
 27 73  1  0  0  0  0
 28 74  1  0  0  0  0
 30 75  1  0  0  0  0
 32 76  1  0  0  0  0
 32 77  1  0  0  0  0
 33 78  1  0  0  0  0
 34 79  1  0  0  0  0
 34 80  1  0  0  0  0
 35 81  1  0  0  0  0
 35 82  1  0  0  0  0
M  END
>  <energy>
100.35316602490398

$$$$
