CCCCCCOC(=O)CC1C=C2CC34CCN(CC(C)(C)C)C3C1CC1CC4C2C(C)(C)C1
                    3D

 85 89  0  0  0  0  0  0  0  0999 V2000
   -3.8455   -1.2786   -3.0714 C   0  0  0  0  0  0  0  0  0  0  0  0
   -4.8842   -2.1945   -2.4415 C   0  0  0  0  0  0  0  0  0  0  0  0
   -5.4042   -1.6538   -1.1055 C   0  0  0  0  0  0  0  0  0  0  0  0
   -4.4698   -1.9828    0.0644 C   0  0  0  0  0  0  0  0  0  0  0  0
   -4.8815   -1.3006    1.3797 C   0  0  0  0  0  0  0  0  0  0  0  0
   -4.6360    0.2068    1.4020 C   0  0  0  0  0  0  0  0  0  0  0  0
   -3.2535    0.4159    1.0952 O   0  0  0  0  0  0  0  0  0  0  0  0
   -2.8903    1.7128    0.9516 C   0  0  0  0  0  0  0  0  0  0  0  0
   -3.5090    2.6758    1.3906 O   0  0  0  0  0  0  0  0  0  0  0  0
   -1.7167    1.8045    0.0229 C   0  0  0  0  0  0  0  0  0  0  0  0
   -0.3451    1.5213    0.6752 C   0  0  0  0  0  0  0  0  0  0  0  0
    0.5210    2.7650    0.5645 C   0  0  0  0  0  0  0  0  0  0  0  0
    1.8077    2.6882    0.9408 C   0  0  0  0  0  0  0  0  0  0  0  0
    2.2980    1.7276    1.9710 C   0  0  0  0  0  0  0  0  0  0  0  0
    2.7801    0.6203    1.0365 C   0  0  0  0  0  0  0  0  0  0  0  0
    3.6908   -0.3481    1.7921 C   0  0  0  0  0  0  0  0  0  0  0  0
    2.7130   -1.2529    2.5503 C   0  0  0  0  0  0  0  0  0  0  0  0
    1.4085   -1.0231    1.9195 N   0  0  0  0  0  0  0  0  0  0  0  0
    0.3865   -2.0305    2.1538 C   0  0  0  0  0  0  0  0  0  0  0  0
    0.3061   -3.3832    1.3705 C   0  0  0  0  0  0  0  0  0  0  0  0
    1.6458   -4.1284    1.3144 C   0  0  0  0  0  0  0  0  0  0  0  0
   -0.6972   -4.2868    2.1227 C   0  0  0  0  0  0  0  0  0  0  0  0
   -0.2278   -3.2043   -0.0583 C   0  0  0  0  0  0  0  0  0  0  0  0
    1.6160   -0.3429    0.6371 C   0  0  0  0  0  0  0  0  0  0  0  0
    0.3718    0.3077   -0.0553 C   0  0  0  0  0  0  0  0  0  0  0  0
    0.6500    0.5282   -1.5824 C   0  0  0  0  0  0  0  0  0  0  0  0
    1.9309    1.2273   -2.1184 C   0  0  0  0  0  0  0  0  0  0  0  0
    3.2429    0.7833   -1.4754 C   0  0  0  0  0  0  0  0  0  0  0  0
    3.4817    1.4200   -0.1070 C   0  0  0  0  0  0  0  0  0  0  0  0
    2.9822    2.9182    0.0049 C   0  0  0  0  0  0  0  0  0  0  0  0
    2.7687    3.6144   -1.3708 C   0  0  0  0  0  0  0  0  0  0  0  0
    2.2084    5.0546   -1.2115 C   0  0  0  0  0  0  0  0  0  0  0  0
    4.1379    3.8316   -2.0645 C   0  0  0  0  0  0  0  0  0  0  0  0
    1.8276    2.7683   -2.2755 C   0  0  0  0  0  0  0  0  0  0  0  0
   -2.9738   -1.1458   -2.4226 H   0  0  0  0  0  0  0  0  0  0  0  0
   -4.2765   -0.2942   -3.2801 H   0  0  0  0  0  0  0  0  0  0  0  0
   -3.4972   -1.6970   -4.0210 H   0  0  0  0  0  0  0  0  0  0  0  0
   -5.7268   -2.2832   -3.1377 H   0  0  0  0  0  0  0  0  0  0  0  0
   -4.4693   -3.2007   -2.3145 H   0  0  0  0  0  0  0  0  0  0  0  0
   -5.5661   -0.5728   -1.1866 H   0  0  0  0  0  0  0  0  0  0  0  0
   -6.3813   -2.1074   -0.9009 H   0  0  0  0  0  0  0  0  0  0  0  0
   -4.4923   -3.0684    0.2268 H   0  0  0  0  0  0  0  0  0  0  0  0
   -3.4327   -1.7295   -0.1831 H   0  0  0  0  0  0  0  0  0  0  0  0
   -5.9282   -1.5241    1.6038 H   0  0  0  0  0  0  0  0  0  0  0  0
   -4.2730   -1.7466    2.1783 H   0  0  0  0  0  0  0  0  0  0  0  0
   -4.8743    0.6122    2.3924 H   0  0  0  0  0  0  0  0  0  0  0  0
   -5.2546    0.7189    0.6539 H   0  0  0  0  0  0  0  0  0  0  0  0
   -1.7768    2.7918   -0.4432 H   0  0  0  0  0  0  0  0  0  0  0  0
   -1.9300    1.1044   -0.7996 H   0  0  0  0  0  0  0  0  0  0  0  0
   -0.4979    1.2575    1.7266 H   0  0  0  0  0  0  0  0  0  0  0  0
    0.2234    3.4350   -0.2290 H   0  0  0  0  0  0  0  0  0  0  0  0
    1.5217    1.4396    2.6908 H   0  0  0  0  0  0  0  0  0  0  0  0
    3.1214    2.1807    2.5351 H   0  0  0  0  0  0  0  0  0  0  0  0
    4.3881    0.1515    2.4724 H   0  0  0  0  0  0  0  0  0  0  0  0
    4.2797   -0.9450    1.0899 H   0  0  0  0  0  0  0  0  0  0  0  0
    3.0707   -2.2850    2.5072 H   0  0  0  0  0  0  0  0  0  0  0  0
    2.6606   -0.9669    3.6071 H   0  0  0  0  0  0  0  0  0  0  0  0
   -0.5863   -1.5302    2.0495 H   0  0  0  0  0  0  0  0  0  0  0  0
    0.4376   -2.2749    3.2250 H   0  0  0  0  0  0  0  0  0  0  0  0
    1.5370   -5.1015    0.8185 H   0  0  0  0  0  0  0  0  0  0  0  0
    2.0356   -4.3211    2.3205 H   0  0  0  0  0  0  0  0  0  0  0  0
    2.3952   -3.5632    0.7485 H   0  0  0  0  0  0  0  0  0  0  0  0
   -0.3659   -4.4883    3.1491 H   0  0  0  0  0  0  0  0  0  0  0  0
   -1.6906   -3.8245    2.1803 H   0  0  0  0  0  0  0  0  0  0  0  0
   -0.8153   -5.2589    1.6283 H   0  0  0  0  0  0  0  0  0  0  0  0
   -1.1930   -2.6859   -0.0569 H   0  0  0  0  0  0  0  0  0  0  0  0
   -0.3894   -4.1757   -0.5414 H   0  0  0  0  0  0  0  0  0  0  0  0
    0.4657   -2.6480   -0.6930 H   0  0  0  0  0  0  0  0  0  0  0  0
    1.9970   -1.1166   -0.0395 H   0  0  0  0  0  0  0  0  0  0  0  0
   -0.3945   -0.4748   -0.0390 H   0  0  0  0  0  0  0  0  0  0  0  0
   -0.2172    1.0088   -2.0532 H   0  0  0  0  0  0  0  0  0  0  0  0
    0.6593   -0.4837   -2.0221 H   0  0  0  0  0  0  0  0  0  0  0  0
    1.9855    0.8688   -3.1572 H   0  0  0  0  0  0  0  0  0  0  0  0
    3.3209   -0.3086   -1.4375 H   0  0  0  0  0  0  0  0  0  0  0  0
    4.0591    1.0525   -2.1526 H   0  0  0  0  0  0  0  0  0  0  0  0
    4.5629    1.4090    0.0784 H   0  0  0  0  0  0  0  0  0  0  0  0
    3.7432    3.4934    0.5542 H   0  0  0  0  0  0  0  0  0  0  0  0
    2.1852    5.5706   -2.1772 H   0  0  0  0  0  0  0  0  0  0  0  0
    2.8305    5.6386   -0.5231 H   0  0  0  0  0  0  0  0  0  0  0  0
    1.1895    5.0951   -0.8248 H   0  0  0  0  0  0  0  0  0  0  0  0
    4.7620    4.5131   -1.4784 H   0  0  0  0  0  0  0  0  0  0  0  0
    4.7233    2.9273   -2.2016 H   0  0  0  0  0  0  0  0  0  0  0  0
    4.0133    4.2799   -3.0571 H   0  0  0  0  0  0  0  0  0  0  0  0
    0.7840    3.0723   -2.1580 H   0  0  0  0  0  0  0  0  0  0  0  0
    2.0359    3.0199   -3.3276 H   0  0  0  0  0  0  0  0  0  0  0  0
  2  1  1  0  0  0  0
  3  2  1  0  0  0  0
  4  3  1  0  0  0  0
  5  4  1  0  0  0  0
  6  5  1  0  0  0  0
  7  6  1  0  0  0  0
  8  7  1  0  0  0  0
  9  8  2  0  0  0  0
 10  8  1  0  0  0  0
 11 10  1  0  0  0  0
 12 11  1  0  0  0  0
 13 12  2  0  0  0  0
 14 13  1  0  0  0  0
 15 14  1  0  0  0  0
 16 15  1  0  0  0  0
 17 16  1  0  0  0  0
 18 17  1  0  0  0  0
 19 18  1  0  0  0  0
 20 19  1  0  0  0  0
 21 20  1  0  0  0  0
 22 20  1  0  0  0  0
 23 20  1  0  0  0  0
 24 18  1  0  0  0  0
 24 15  1  0  0  0  0
 25 24  1  0  0  0  0
 25 11  1  0  0  0  0
 26 25  1  0  0  0  0
 27 26  1  0  0  0  0
 28 27  1  0  0  0  0
 29 28  1  0  0  0  0
 29 15  1  0  0  0  0
 30 29  1  0  0  0  0
 30 13  1  0  0  0  0
 31 30  1  0  0  0  0
 32 31  1  0  0  0  0
 33 31  1  0  0  0  0
 34 31  1  0  0  0  0
 34 27  1  0  0  0  0
  1 35  1  0  0  0  0
  1 36  1  0  0  0  0
  1 37  1  0  0  0  0
  2 38  1  0  0  0  0
  2 39  1  0  0  0  0
  3 40  1  0  0  0  0
  3 41  1  0  0  0  0
  4 42  1  0  0  0  0
  4 43  1  0  0  0  0
  5 44  1  0  0  0  0
  5 45  1  0  0  0  0
  6 46  1  0  0  0  0
  6 47  1  0  0  0  0
 10 48  1  0  0  0  0
 10 49  1  0  0  0  0
 11 50  1  0  0  0  0
 12 51  1  0  0  0  0
 14 52  1  0  0  0  0
 14 53  1  0  0  0  0
 16 54  1  0  0  0  0
 16 55  1  0  0  0  0
 17 56  1  0  0  0  0
 17 57  1  0  0  0  0
 19 58  1  0  0  0  0
 19 59  1  0  0  0  0
 21 60  1  0  0  0  0
 21 61  1  0  0  0  0
 21 62  1  0  0  0  0
 22 63  1  0  0  0  0
 22 64  1  0  0  0  0
 22 65  1  0  0  0  0
 23 66  1  0  0  0  0
 23 67  1  0  0  0  0
 23 68  1  0  0  0  0
 24 69  1  0  0  0  0
 25 70  1  0  0  0  0
 26 71  1  0  0  0  0
 26 72  1  0  0  0  0
 27 73  1  0  0  0  0
 28 74  1  0  0  0  0
 28 75  1  0  0  0  0
 29 76  1  0  0  0  0
 30 77  1  0  0  0  0
 32 78  1  0  0  0  0
 32 79  1  0  0  0  0
 32 80  1  0  0  0  0
 33 81  1  0  0  0  0
 33 82  1  0  0  0  0
 33 83  1  0  0  0  0
 34 84  1  0  0  0  0
 34 85  1  0  0  0  0
M  END
>  <energy>
151.65855828516393

$$$$
