CC1C(SC2CNC(n3ccnc3)C(O)C2)=C(C(=O)O)N2C(=O)C1C(Cl)(C(C)C)C2C(=O)O
                    3D

 60 63  0  0  0  0  0  0  0  0999 V2000
    0.5632    0.2612   -3.4788 C   0  0  0  0  0  0  0  0  0  0  0  0
    1.7170    0.7989   -2.6014 C   0  0  0  0  0  0  0  0  0  0  0  0
    1.2652    1.6029   -1.3587 C   0  0  0  0  0  0  0  0  0  0  0  0
   -0.2282    2.5029   -1.4063 S   0  0  0  0  0  0  0  0  0  0  0  0
   -1.2806    1.5760   -0.2439 C   0  0  0  0  0  0  0  0  0  0  0  0
   -1.8853    2.5218    0.8081 C   0  0  0  0  0  0  0  0  0  0  0  0
   -2.6691    1.7559    1.7831 N   0  0  0  0  0  0  0  0  0  0  0  0
   -3.8029    1.0649    1.1317 C   0  0  0  0  0  0  0  0  0  0  0  0
   -4.4905    0.2996    2.1799 N   0  0  0  0  0  0  0  0  0  0  0  0
   -5.8397    0.2631    2.4103 C   0  0  0  0  0  0  0  0  0  0  0  0
   -6.0044   -0.5840    3.4875 C   0  0  0  0  0  0  0  0  0  0  0  0
   -4.7917   -1.0597    3.9115 N   0  0  0  0  0  0  0  0  0  0  0  0
   -3.9008   -0.5160    3.1097 C   0  0  0  0  0  0  0  0  0  0  0  0
   -3.3507    0.1424   -0.0357 C   0  0  0  0  0  0  0  0  0  0  0  0
   -4.4842   -0.2779   -0.8035 O   0  0  0  0  0  0  0  0  0  0  0  0
   -2.4125    0.8811   -0.9997 C   0  0  0  0  0  0  0  0  0  0  0  0
    2.1265    1.6310   -0.3209 C   0  0  0  0  0  0  0  0  0  0  0  0
    1.8518    2.2865    0.9813 C   0  0  0  0  0  0  0  0  0  0  0  0
    1.7679    1.7029    2.0497 O   0  0  0  0  0  0  0  0  0  0  0  0
    1.7463    3.6217    0.8818 O   0  0  0  0  0  0  0  0  0  0  0  0
    3.3160    0.8886   -0.4149 N   0  0  0  0  0  0  0  0  0  0  0  0
    3.7414    0.6956   -1.7371 C   0  0  0  0  0  0  0  0  0  0  0  0
    4.5588    1.3772   -2.3329 O   0  0  0  0  0  0  0  0  0  0  0  0
    2.8928   -0.3799   -2.3732 C   0  0  0  0  0  0  0  0  0  0  0  0
    3.2729   -1.3674   -1.0937 C   0  0  0  0  0  0  0  0  0  0  0  0
    4.9937   -1.9188   -1.4961 Cl  0  0  0  0  0  0  0  0  0  0  0  0
    2.4031   -2.7156   -0.9786 C   0  0  0  0  0  0  0  0  0  0  0  0
    0.9585   -2.4821   -0.4751 C   0  0  0  0  0  0  0  0  0  0  0  0
    3.0402   -3.8459   -0.1177 C   0  0  0  0  0  0  0  0  0  0  0  0
    3.2044   -0.4594    0.1461 C   0  0  0  0  0  0  0  0  0  0  0  0
    4.2520   -0.7291    1.2216 C   0  0  0  0  0  0  0  0  0  0  0  0
    4.3605   -1.7584    1.8800 O   0  0  0  0  0  0  0  0  0  0  0  0
    5.0958    0.2807    1.4909 O   0  0  0  0  0  0  0  0  0  0  0  0
   -0.0106    1.0795   -3.9317 H   0  0  0  0  0  0  0  0  0  0  0  0
   -0.1216   -0.3744   -2.9124 H   0  0  0  0  0  0  0  0  0  0  0  0
    0.9703   -0.3276   -4.3049 H   0  0  0  0  0  0  0  0  0  0  0  0
    2.1759    1.5552   -3.2705 H   0  0  0  0  0  0  0  0  0  0  0  0
   -0.6681    0.8197    0.2516 H   0  0  0  0  0  0  0  0  0  0  0  0
   -2.5265    3.2829    0.3432 H   0  0  0  0  0  0  0  0  0  0  0  0
   -1.0901    3.0538    1.3471 H   0  0  0  0  0  0  0  0  0  0  0  0
   -3.0276    2.3832    2.4990 H   0  0  0  0  0  0  0  0  0  0  0  0
   -4.5261    1.8072    0.7638 H   0  0  0  0  0  0  0  0  0  0  0  0
   -6.5578    0.8153    1.8156 H   0  0  0  0  0  0  0  0  0  0  0  0
   -6.9265   -0.8723    3.9789 H   0  0  0  0  0  0  0  0  0  0  0  0
   -2.8326   -0.6635    3.1637 H   0  0  0  0  0  0  0  0  0  0  0  0
   -2.8514   -0.7554    0.3514 H   0  0  0  0  0  0  0  0  0  0  0  0
   -4.1871   -0.9795   -1.4093 H   0  0  0  0  0  0  0  0  0  0  0  0
   -2.9957    1.6095   -1.5806 H   0  0  0  0  0  0  0  0  0  0  0  0
   -2.0245    0.1687   -1.7366 H   0  0  0  0  0  0  0  0  0  0  0  0
    1.6130    3.9368    1.7984 H   0  0  0  0  0  0  0  0  0  0  0  0
    2.0703   -1.0635   -2.5298 H   0  0  0  0  0  0  0  0  0  0  0  0
    2.3203   -3.1337   -1.9973 H   0  0  0  0  0  0  0  0  0  0  0  0
    0.3276   -3.3484   -0.7046 H   0  0  0  0  0  0  0  0  0  0  0  0
    0.4872   -1.6184   -0.9527 H   0  0  0  0  0  0  0  0  0  0  0  0
    0.9218   -2.3418    0.6126 H   0  0  0  0  0  0  0  0  0  0  0  0
    2.3449   -4.6796    0.0387 H   0  0  0  0  0  0  0  0  0  0  0  0
    3.3409   -3.5071    0.8758 H   0  0  0  0  0  0  0  0  0  0  0  0
    3.9176   -4.2874   -0.6043 H   0  0  0  0  0  0  0  0  0  0  0  0
    2.2394   -0.5425    0.6614 H   0  0  0  0  0  0  0  0  0  0  0  0
    5.6296   -0.0775    2.2279 H   0  0  0  0  0  0  0  0  0  0  0  0
  2  1  1  0  0  0  0
  3  2  1  0  0  0  0
  4  3  1  0  0  0  0
  5  4  1  0  0  0  0
  6  5  1  0  0  0  0
  7  6  1  0  0  0  0
  8  7  1  0  0  0  0
  9  8  1  0  0  0  0
 10  9  1  0  0  0  0
 11 10  2  0  0  0  0
 12 11  1  0  0  0  0
 13 12  2  0  0  0  0
 13  9  1  0  0  0  0
 14  8  1  0  0  0  0
 15 14  1  0  0  0  0
 16 14  1  0  0  0  0
 16  5  1  0  0  0  0
 17  3  2  0  0  0  0
 18 17  1  0  0  0  0
 19 18  2  0  0  0  0
 20 18  1  0  0  0  0
 21 17  1  0  0  0  0
 22 21  1  0  0  0  0
 23 22  2  0  0  0  0
 24 22  1  0  0  0  0
 24  2  1  0  0  0  0
 25 24  1  0  0  0  0
 26 25  1  0  0  0  0
 27 25  1  0  0  0  0
 28 27  1  0  0  0  0
 29 27  1  0  0  0  0
 30 25  1  0  0  0  0
 30 21  1  0  0  0  0
 31 30  1  0  0  0  0
 32 31  2  0  0  0  0
 33 31  1  0  0  0  0
  1 34  1  0  0  0  0
  1 35  1  0  0  0  0
  1 36  1  0  0  0  0
  2 37  1  0  0  0  0
  5 38  1  0  0  0  0
  6 39  1  0  0  0  0
  6 40  1  0  0  0  0
  7 41  1  0  0  0  0
  8 42  1  0  0  0  0
 10 43  1  0  0  0  0
 11 44  1  0  0  0  0
 13 45  1  0  0  0  0
 14 46  1  0  0  0  0
 15 47  1  0  0  0  0
 16 48  1  0  0  0  0
 16 49  1  0  0  0  0
 20 50  1  0  0  0  0
 24 51  1  0  0  0  0
 27 52  1  0  0  0  0
 28 53  1  0  0  0  0
 28 54  1  0  0  0  0
 28 55  1  0  0  0  0
 29 56  1  0  0  0  0
 29 57  1  0  0  0  0
 29 58  1  0  0  0  0
 30 59  1  0  0  0  0
 33 60  1  0  0  0  0
M  END
>  <energy>
213.92556684973613

$$$$
