C=C1C(O)C2C(OC(=O)C(C)CC)C(C)(O)C3=C(C(O)C(OC(=O)CCC)C32C)C12CC(OC)C2=O
                    3D

 74 77  0  0  0  0  0  0  0  0999 V2000
    2.3823    2.3971    0.6892 C   0  0  0  0  0  0  0  0  0  0  0  0
    1.9392    1.1507    0.4159 C   0  0  0  0  0  0  0  0  0  0  0  0
    1.8407    0.0566    1.5075 C   0  0  0  0  0  0  0  0  0  0  0  0
    2.2555    0.5990    2.7695 O   0  0  0  0  0  0  0  0  0  0  0  0
    0.4870   -0.7150    1.7517 C   0  0  0  0  0  0  0  0  0  0  0  0
   -0.7628    0.2430    1.7715 C   0  0  0  0  0  0  0  0  0  0  0  0
   -0.4793    1.5621    2.2534 O   0  0  0  0  0  0  0  0  0  0  0  0
   -1.4741    2.0905    3.0054 C   0  0  0  0  0  0  0  0  0  0  0  0
   -2.0080    1.5182    3.9497 O   0  0  0  0  0  0  0  0  0  0  0  0
   -1.9188    3.4232    2.4424 C   0  0  0  0  0  0  0  0  0  0  0  0
   -1.3812    4.5684    3.2880 C   0  0  0  0  0  0  0  0  0  0  0  0
   -3.4555    3.4288    2.3564 C   0  0  0  0  0  0  0  0  0  0  0  0
   -3.9738    4.2572    1.1935 C   0  0  0  0  0  0  0  0  0  0  0  0
   -1.2500    0.2851    0.2832 C   0  0  0  0  0  0  0  0  0  0  0  0
   -2.7312   -0.1030    0.1440 C   0  0  0  0  0  0  0  0  0  0  0  0
   -1.1263    1.5687   -0.3054 O   0  0  0  0  0  0  0  0  0  0  0  0
   -0.2901   -0.6988   -0.3632 C   0  0  0  0  0  0  0  0  0  0  0  0
    0.8186   -0.5188   -1.1333 C   0  0  0  0  0  0  0  0  0  0  0  0
    1.6532   -1.7698   -1.2365 C   0  0  0  0  0  0  0  0  0  0  0  0
    1.3781   -2.3391   -2.5103 O   0  0  0  0  0  0  0  0  0  0  0  0
    1.1816   -2.6087   -0.0387 C   0  0  0  0  0  0  0  0  0  0  0  0
    0.6718   -3.8773   -0.4964 O   0  0  0  0  0  0  0  0  0  0  0  0
    1.6160   -4.7664   -0.8730 C   0  0  0  0  0  0  0  0  0  0  0  0
    2.8213   -4.5924   -0.7375 O   0  0  0  0  0  0  0  0  0  0  0  0
    1.0432   -6.0092   -1.5148 C   0  0  0  0  0  0  0  0  0  0  0  0
   -0.4496   -6.2504   -1.3049 C   0  0  0  0  0  0  0  0  0  0  0  0
   -1.3118   -5.4546   -2.2771 C   0  0  0  0  0  0  0  0  0  0  0  0
    0.0708   -1.7735    0.6527 C   0  0  0  0  0  0  0  0  0  0  0  0
   -1.0383   -2.7173    1.1562 C   0  0  0  0  0  0  0  0  0  0  0  0
    1.5929    0.7878   -1.0374 C   0  0  0  0  0  0  0  0  0  0  0  0
    1.1147    1.9169   -2.0124 C   0  0  0  0  0  0  0  0  0  0  0  0
    2.4541    1.9479   -2.7807 C   0  0  0  0  0  0  0  0  0  0  0  0
    3.2796    3.1300   -2.6359 O   0  0  0  0  0  0  0  0  0  0  0  0
    2.9989    4.2096   -3.5116 C   0  0  0  0  0  0  0  0  0  0  0  0
    2.9258    0.7683   -1.9116 C   0  0  0  0  0  0  0  0  0  0  0  0
    3.9422    0.1048   -1.9225 O   0  0  0  0  0  0  0  0  0  0  0  0
    2.5284    3.1619   -0.0631 H   0  0  0  0  0  0  0  0  0  0  0  0
    2.6333    2.6943    1.7048 H   0  0  0  0  0  0  0  0  0  0  0  0
    2.6150   -0.6799    1.2597 H   0  0  0  0  0  0  0  0  0  0  0  0
    2.4768   -0.1364    3.3638 H   0  0  0  0  0  0  0  0  0  0  0  0
    0.5597   -1.2128    2.7305 H   0  0  0  0  0  0  0  0  0  0  0  0
   -1.5316   -0.2296    2.3971 H   0  0  0  0  0  0  0  0  0  0  0  0
   -1.5177    3.5174    1.4263 H   0  0  0  0  0  0  0  0  0  0  0  0
   -0.2881    4.5449    3.3232 H   0  0  0  0  0  0  0  0  0  0  0  0
   -1.6781    5.5355    2.8701 H   0  0  0  0  0  0  0  0  0  0  0  0
   -1.7434    4.5105    4.3200 H   0  0  0  0  0  0  0  0  0  0  0  0
   -3.8814    3.8077    3.2913 H   0  0  0  0  0  0  0  0  0  0  0  0
   -3.8420    2.4098    2.2410 H   0  0  0  0  0  0  0  0  0  0  0  0
   -3.6739    3.8069    0.2420 H   0  0  0  0  0  0  0  0  0  0  0  0
   -3.5871    5.2812    1.2278 H   0  0  0  0  0  0  0  0  0  0  0  0
   -5.0677    4.2993    1.2149 H   0  0  0  0  0  0  0  0  0  0  0  0
   -2.9825   -1.0602    0.5938 H   0  0  0  0  0  0  0  0  0  0  0  0
   -3.3645    0.6526    0.6180 H   0  0  0  0  0  0  0  0  0  0  0  0
   -3.0313   -0.1399   -0.9106 H   0  0  0  0  0  0  0  0  0  0  0  0
   -1.5534    1.5337   -1.1767 H   0  0  0  0  0  0  0  0  0  0  0  0
    2.7240   -1.6064   -1.1339 H   0  0  0  0  0  0  0  0  0  0  0  0
    2.2338   -2.4918   -2.9541 H   0  0  0  0  0  0  0  0  0  0  0  0
    1.9807   -2.7874    0.6907 H   0  0  0  0  0  0  0  0  0  0  0  0
    1.2705   -5.9676   -2.5836 H   0  0  0  0  0  0  0  0  0  0  0  0
    1.5818   -6.8598   -1.0793 H   0  0  0  0  0  0  0  0  0  0  0  0
   -0.7451   -6.0281   -0.2741 H   0  0  0  0  0  0  0  0  0  0  0  0
   -0.6601   -7.3140   -1.4697 H   0  0  0  0  0  0  0  0  0  0  0  0
   -2.3653   -5.7325   -2.1710 H   0  0  0  0  0  0  0  0  0  0  0  0
   -1.2325   -4.3789   -2.1003 H   0  0  0  0  0  0  0  0  0  0  0  0
   -1.0109   -5.6497   -3.3121 H   0  0  0  0  0  0  0  0  0  0  0  0
   -0.5945   -3.5536    1.7101 H   0  0  0  0  0  0  0  0  0  0  0  0
   -1.6304   -3.1287    0.3303 H   0  0  0  0  0  0  0  0  0  0  0  0
   -1.7320   -2.2534    1.8612 H   0  0  0  0  0  0  0  0  0  0  0  0
    0.8466    2.8708   -1.5464 H   0  0  0  0  0  0  0  0  0  0  0  0
    0.2715    1.6328   -2.6528 H   0  0  0  0  0  0  0  0  0  0  0  0
    2.3688    1.6452   -3.8321 H   0  0  0  0  0  0  0  0  0  0  0  0
    1.9325    4.4544   -3.4758 H   0  0  0  0  0  0  0  0  0  0  0  0
    3.3001    3.9539   -4.5338 H   0  0  0  0  0  0  0  0  0  0  0  0
    3.5729    5.0785   -3.1744 H   0  0  0  0  0  0  0  0  0  0  0  0
  2  1  2  0  0  0  0
  3  2  1  0  0  0  0
  4  3  1  0  0  0  0
  5  3  1  0  0  0  0
  6  5  1  0  0  0  0
  7  6  1  0  0  0  0
  8  7  1  0  0  0  0
  9  8  2  0  0  0  0
 10  8  1  0  0  0  0
 11 10  1  0  0  0  0
 12 10  1  0  0  0  0
 13 12  1  0  0  0  0
 14  6  1  0  0  0  0
 15 14  1  0  0  0  0
 16 14  1  0  0  0  0
 17 14  1  0  0  0  0
 18 17  2  0  0  0  0
 19 18  1  0  0  0  0
 20 19  1  0  0  0  0
 21 19  1  0  0  0  0
 22 21  1  0  0  0  0
 23 22  1  0  0  0  0
 24 23  2  0  0  0  0
 25 23  1  0  0  0  0
 26 25  1  0  0  0  0
 27 26  1  0  0  0  0
 28 21  1  0  0  0  0
 28 17  1  0  0  0  0
 28  5  1  0  0  0  0
 29 28  1  0  0  0  0
 30 18  1  0  0  0  0
 30  2  1  0  0  0  0
 31 30  1  0  0  0  0
 32 31  1  0  0  0  0
 33 32  1  0  0  0  0
 34 33  1  0  0  0  0
 35 32  1  0  0  0  0
 35 30  1  0  0  0  0
 36 35  2  0  0  0  0
  1 37  1  0  0  0  0
  1 38  1  0  0  0  0
  3 39  1  0  0  0  0
  4 40  1  0  0  0  0
  5 41  1  0  0  0  0
  6 42  1  0  0  0  0
 10 43  1  0  0  0  0
 11 44  1  0  0  0  0
 11 45  1  0  0  0  0
 11 46  1  0  0  0  0
 12 47  1  0  0  0  0
 12 48  1  0  0  0  0
 13 49  1  0  0  0  0
 13 50  1  0  0  0  0
 13 51  1  0  0  0  0
 15 52  1  0  0  0  0
 15 53  1  0  0  0  0
 15 54  1  0  0  0  0
 16 55  1  0  0  0  0
 19 56  1  0  0  0  0
 20 57  1  0  0  0  0
 21 58  1  0  0  0  0
 25 59  1  0  0  0  0
 25 60  1  0  0  0  0
 26 61  1  0  0  0  0
 26 62  1  0  0  0  0
 27 63  1  0  0  0  0
 27 64  1  0  0  0  0
 27 65  1  0  0  0  0
 29 66  1  0  0  0  0
 29 67  1  0  0  0  0
 29 68  1  0  0  0  0
 31 69  1  0  0  0  0
 31 70  1  0  0  0  0
 32 71  1  0  0  0  0
 34 72  1  0  0  0  0
 34 73  1  0  0  0  0
 34 74  1  0  0  0  0
M  END
>  <energy>
167.05696946276967

$$$$
