COC1C2=CC34CC(C)(C2C2CC2(C)C(OC(=O)C(N)=O)CC3OC(C)=O)C4C1(C)C=CC(=O)C(C)(O)C1CC(
                    3D

 92 97  0  0  0  0  0  0  0  0999 V2000
   -0.1060   -2.3852    2.7581 C   0  0  0  0  0  0  0  0  0  0  0  0
    0.1518   -1.2370    1.9661 O   0  0  0  0  0  0  0  0  0  0  0  0
   -1.0242   -0.4656    1.7423 C   0  0  0  0  0  0  0  0  0  0  0  0
   -1.5255   -0.7382    0.3370 C   0  0  0  0  0  0  0  0  0  0  0  0
   -2.7173   -0.1664    0.1604 C   0  0  0  0  0  0  0  0  0  0  0  0
   -2.5720    1.2279   -0.4215 C   0  0  0  0  0  0  0  0  0  0  0  0
   -1.6325    1.6327   -1.6197 C   0  0  0  0  0  0  0  0  0  0  0  0
   -0.4377    1.0764   -0.8480 C   0  0  0  0  0  0  0  0  0  0  0  0
    0.8360    1.5959   -1.4910 C   0  0  0  0  0  0  0  0  0  0  0  0
   -0.5256   -0.4843   -0.7775 C   0  0  0  0  0  0  0  0  0  0  0  0
   -0.8438   -1.0558   -2.1404 C   0  0  0  0  0  0  0  0  0  0  0  0
   -1.5287   -2.3646   -2.3527 C   0  0  0  0  0  0  0  0  0  0  0  0
   -2.2203   -1.1088   -2.9084 C   0  0  0  0  0  0  0  0  0  0  0  0
   -2.0909   -0.8781   -4.4080 C   0  0  0  0  0  0  0  0  0  0  0  0
   -3.7141   -0.8587   -2.4379 C   0  0  0  0  0  0  0  0  0  0  0  0
   -4.0885   -1.8352   -1.4447 O   0  0  0  0  0  0  0  0  0  0  0  0
   -4.8166   -2.8700   -1.9349 C   0  0  0  0  0  0  0  0  0  0  0  0
   -5.5881   -2.8351   -2.8757 O   0  0  0  0  0  0  0  0  0  0  0  0
   -4.4262   -4.1885   -1.2230 C   0  0  0  0  0  0  0  0  0  0  0  0
   -4.0543   -4.0950    0.0962 N   0  0  0  0  0  0  0  0  0  0  0  0
   -4.4073   -5.2553   -1.8196 O   0  0  0  0  0  0  0  0  0  0  0  0
   -4.2894    0.5985   -2.2076 C   0  0  0  0  0  0  0  0  0  0  0  0
   -3.9315    1.5898   -1.0164 C   0  0  0  0  0  0  0  0  0  0  0  0
   -4.9538    1.5446    0.0155 O   0  0  0  0  0  0  0  0  0  0  0  0
   -5.9833    2.4330   -0.1200 C   0  0  0  0  0  0  0  0  0  0  0  0
   -5.6836    3.7343    0.5685 C   0  0  0  0  0  0  0  0  0  0  0  0
   -7.0439    2.1745   -0.6727 O   0  0  0  0  0  0  0  0  0  0  0  0
   -1.1368    1.7845    0.4286 C   0  0  0  0  0  0  0  0  0  0  0  0
   -0.7696    1.1200    1.8160 C   0  0  0  0  0  0  0  0  0  0  0  0
   -1.7253    1.7362    2.8555 C   0  0  0  0  0  0  0  0  0  0  0  0
    0.6652    1.3713    2.2922 C   0  0  0  0  0  0  0  0  0  0  0  0
    1.7124    1.9935    1.7209 C   0  0  0  0  0  0  0  0  0  0  0  0
    3.0807    1.8268    2.3412 C   0  0  0  0  0  0  0  0  0  0  0  0
    3.2005    1.7763    3.5677 O   0  0  0  0  0  0  0  0  0  0  0  0
    4.3144    1.6778    1.3908 C   0  0  0  0  0  0  0  0  0  0  0  0
    5.4295    2.5854    1.9406 C   0  0  0  0  0  0  0  0  0  0  0  0
    4.0585    2.1055    0.0539 O   0  0  0  0  0  0  0  0  0  0  0  0
    4.7667    0.1722    1.3397 C   0  0  0  0  0  0  0  0  0  0  0  0
    3.7011   -0.7229    0.6762 C   0  0  0  0  0  0  0  0  0  0  0  0
    4.3873   -1.8205   -0.1365 C   0  0  0  0  0  0  0  0  0  0  0  0
    4.2980   -3.1996    0.4924 C   0  0  0  0  0  0  0  0  0  0  0  0
    5.8175   -1.3571   -0.2266 C   0  0  0  0  0  0  0  0  0  0  0  0
    6.6776   -1.9649   -0.8471 O   0  0  0  0  0  0  0  0  0  0  0  0
    6.0709   -0.0727    0.5394 C   0  0  0  0  0  0  0  0  0  0  0  0
    7.2924   -0.2548    1.4390 C   0  0  0  0  0  0  0  0  0  0  0  0
    0.8383   -2.9162    2.9170 H   0  0  0  0  0  0  0  0  0  0  0  0
   -0.8116   -3.0532    2.2506 H   0  0  0  0  0  0  0  0  0  0  0  0
   -0.4998   -2.0904    3.7385 H   0  0  0  0  0  0  0  0  0  0  0  0
   -1.7893   -0.7364    2.4827 H   0  0  0  0  0  0  0  0  0  0  0  0
   -3.4910   -0.2427    0.9314 H   0  0  0  0  0  0  0  0  0  0  0  0
   -1.5931    2.7231   -1.7841 H   0  0  0  0  0  0  0  0  0  0  0  0
   -1.7954    1.2466   -2.6229 H   0  0  0  0  0  0  0  0  0  0  0  0
    1.7219    1.1890   -1.0048 H   0  0  0  0  0  0  0  0  0  0  0  0
    0.8872    2.6899   -1.4464 H   0  0  0  0  0  0  0  0  0  0  0  0
    0.8952    1.3094   -2.5491 H   0  0  0  0  0  0  0  0  0  0  0  0
    0.4458   -0.8865   -0.4726 H   0  0  0  0  0  0  0  0  0  0  0  0
    0.0389   -0.9184   -2.7625 H   0  0  0  0  0  0  0  0  0  0  0  0
   -1.0754   -3.0728   -3.0494 H   0  0  0  0  0  0  0  0  0  0  0  0
   -1.8690   -2.8717   -1.4515 H   0  0  0  0  0  0  0  0  0  0  0  0
   -2.6572   -1.6309   -4.9676 H   0  0  0  0  0  0  0  0  0  0  0  0
   -1.0506   -0.9217   -4.7538 H   0  0  0  0  0  0  0  0  0  0  0  0
   -2.4797    0.1118   -4.6729 H   0  0  0  0  0  0  0  0  0  0  0  0
   -4.2612   -1.1226   -3.3578 H   0  0  0  0  0  0  0  0  0  0  0  0
   -3.6419   -4.9299    0.4941 H   0  0  0  0  0  0  0  0  0  0  0  0
   -3.8067   -3.1906    0.4796 H   0  0  0  0  0  0  0  0  0  0  0  0
   -5.3816    0.4816   -2.1836 H   0  0  0  0  0  0  0  0  0  0  0  0
   -4.0744    1.1571   -3.1296 H   0  0  0  0  0  0  0  0  0  0  0  0
   -3.9198    2.6113   -1.4232 H   0  0  0  0  0  0  0  0  0  0  0  0
   -6.5287    4.4140    0.4358 H   0  0  0  0  0  0  0  0  0  0  0  0
   -4.7989    4.2016    0.1327 H   0  0  0  0  0  0  0  0  0  0  0  0
   -5.5474    3.5661    1.6384 H   0  0  0  0  0  0  0  0  0  0  0  0
   -1.0452    2.8807    0.4561 H   0  0  0  0  0  0  0  0  0  0  0  0
   -1.5884    1.2942    3.8508 H   0  0  0  0  0  0  0  0  0  0  0  0
   -1.5733    2.8187    2.9521 H   0  0  0  0  0  0  0  0  0  0  0  0
   -2.7767    1.5878    2.5780 H   0  0  0  0  0  0  0  0  0  0  0  0
    0.8727    0.8576    3.2375 H   0  0  0  0  0  0  0  0  0  0  0  0
    1.6606    2.5228    0.7818 H   0  0  0  0  0  0  0  0  0  0  0  0
    5.0649    3.6104    2.0730 H   0  0  0  0  0  0  0  0  0  0  0  0
    6.2708    2.6547    1.2425 H   0  0  0  0  0  0  0  0  0  0  0  0
    5.7994    2.2444    2.9114 H   0  0  0  0  0  0  0  0  0  0  0  0
    4.0452    3.0801    0.0403 H   0  0  0  0  0  0  0  0  0  0  0  0
    4.9081   -0.1814    2.3705 H   0  0  0  0  0  0  0  0  0  0  0  0
    3.0704   -0.1500   -0.0057 H   0  0  0  0  0  0  0  0  0  0  0  0
    3.0260   -1.1388    1.4360 H   0  0  0  0  0  0  0  0  0  0  0  0
    3.9675   -1.8447   -1.1471 H   0  0  0  0  0  0  0  0  0  0  0  0
    4.7767   -3.2266    1.4769 H   0  0  0  0  0  0  0  0  0  0  0  0
    3.2531   -3.5111    0.6067 H   0  0  0  0  0  0  0  0  0  0  0  0
    4.8031   -3.9426   -0.1368 H   0  0  0  0  0  0  0  0  0  0  0  0
    6.2493    0.7119   -0.2011 H   0  0  0  0  0  0  0  0  0  0  0  0
    7.1779   -1.1275    2.0917 H   0  0  0  0  0  0  0  0  0  0  0  0
    7.4634    0.6209    2.0680 H   0  0  0  0  0  0  0  0  0  0  0  0
    8.1959   -0.4217    0.8404 H   0  0  0  0  0  0  0  0  0  0  0  0
  2  1  1  0  0  0  0
  3  2  1  0  0  0  0
  4  3  1  0  0  0  0
  5  4  2  0  0  0  0
  6  5  1  0  0  0  0
  7  6  1  0  0  0  0
  8  7  1  0  0  0  0
  9  8  1  0  0  0  0
 10  8  1  0  0  0  0
 10  4  1  0  0  0  0
 11 10  1  0  0  0  0
 12 11  1  0  0  0  0
 13 12  1  0  0  0  0
 13 11  1  0  0  0  0
 14 13  1  0  0  0  0
 15 13  1  0  0  0  0
 16 15  1  0  0  0  0
 17 16  1  0  0  0  0
 18 17  2  0  0  0  0
 19 17  1  0  0  0  0
 20 19  1  0  0  0  0
 21 19  2  0  0  0  0
 22 15  1  0  0  0  0
 23 22  1  0  0  0  0
 23  6  1  0  0  0  0
 24 23  1  0  0  0  0
 25 24  1  0  0  0  0
 26 25  1  0  0  0  0
 27 25  2  0  0  0  0
 28  8  1  0  0  0  0
 28  6  1  0  0  0  0
 29 28  1  0  0  0  0
 29  3  1  0  0  0  0
 30 29  1  0  0  0  0
 31 29  1  0  0  0  0
 32 31  2  0  0  0  0
 33 32  1  0  0  0  0
 34 33  2  0  0  0  0
 35 33  1  0  0  0  0
 36 35  1  0  0  0  0
 37 35  1  0  0  0  0
 38 35  1  0  0  0  0
 39 38  1  0  0  0  0
 40 39  1  0  0  0  0
 41 40  1  0  0  0  0
 42 40  1  0  0  0  0
 43 42  2  0  0  0  0
 44 42  1  0  0  0  0
 44 38  1  0  0  0  0
 45 44  1  0  0  0  0
  1 46  1  0  0  0  0
  1 47  1  0  0  0  0
  1 48  1  0  0  0  0
  3 49  1  0  0  0  0
  5 50  1  0  0  0  0
  7 51  1  0  0  0  0
  7 52  1  0  0  0  0
  9 53  1  0  0  0  0
  9 54  1  0  0  0  0
  9 55  1  0  0  0  0
 10 56  1  0  0  0  0
 11 57  1  0  0  0  0
 12 58  1  0  0  0  0
 12 59  1  0  0  0  0
 14 60  1  0  0  0  0
 14 61  1  0  0  0  0
 14 62  1  0  0  0  0
 15 63  1  0  0  0  0
 20 64  1  0  0  0  0
 20 65  1  0  0  0  0
 22 66  1  0  0  0  0
 22 67  1  0  0  0  0
 23 68  1  0  0  0  0
 26 69  1  0  0  0  0
 26 70  1  0  0  0  0
 26 71  1  0  0  0  0
 28 72  1  0  0  0  0
 30 73  1  0  0  0  0
 30 74  1  0  0  0  0
 30 75  1  0  0  0  0
 31 76  1  0  0  0  0
 32 77  1  0  0  0  0
 36 78  1  0  0  0  0
 36 79  1  0  0  0  0
 36 80  1  0  0  0  0
 37 81  1  0  0  0  0
 38 82  1  0  0  0  0
 39 83  1  0  0  0  0
 39 84  1  0  0  0  0
 40 85  1  0  0  0  0
 41 86  1  0  0  0  0
 41 87  1  0  0  0  0
 41 88  1  0  0  0  0
 44 89  1  0  0  0  0
 45 90  1  0  0  0  0
 45 91  1  0  0  0  0
 45 92  1  0  0  0  0
M  END
>  <energy>
341.27844439792773

$$$$
