CCC1(C)C(NC(=O)C2CC3CC4CC(C3)(C2)O4)C(C(=O)Nc2ccc(Br)cc2Br)C1C(=O)O
                    3D

 64 68  0  0  0  0  0  0  0  0999 V2000
    2.5437   -4.2605   -2.8631 C   0  0  0  0  0  0  0  0  0  0  0  0
    2.1658   -3.6497   -1.5230 C   0  0  0  0  0  0  0  0  0  0  0  0
    1.0847   -2.5511   -1.6353 C   0  0  0  0  0  0  0  0  0  0  0  0
   -0.2399   -3.0967   -2.1859 C   0  0  0  0  0  0  0  0  0  0  0  0
    0.9952   -1.7784   -0.2683 C   0  0  0  0  0  0  0  0  0  0  0  0
   -0.2150   -2.1431    0.4956 N   0  0  0  0  0  0  0  0  0  0  0  0
   -1.1733   -1.4948    1.2094 C   0  0  0  0  0  0  0  0  0  0  0  0
   -1.8446   -2.1989    1.9663 O   0  0  0  0  0  0  0  0  0  0  0  0
   -1.4606   -0.0148    1.0269 C   0  0  0  0  0  0  0  0  0  0  0  0
   -2.4505    0.1292   -0.2323 C   0  0  0  0  0  0  0  0  0  0  0  0
   -3.4615    1.3326   -0.2503 C   0  0  0  0  0  0  0  0  0  0  0  0
   -4.9811    1.0175    0.0105 C   0  0  0  0  0  0  0  0  0  0  0  0
   -5.2029    0.7350    1.5210 C   0  0  0  0  0  0  0  0  0  0  0  0
   -4.6793    1.6358    2.7317 C   0  0  0  0  0  0  0  0  0  0  0  0
   -3.3028    1.2025    2.1242 C   0  0  0  0  0  0  0  0  0  0  0  0
   -3.1048    2.1879    0.9231 C   0  0  0  0  0  0  0  0  0  0  0  0
   -1.9392    0.6333    2.4025 C   0  0  0  0  0  0  0  0  0  0  0  0
   -4.0760   -0.1019    1.8461 O   0  0  0  0  0  0  0  0  0  0  0  0
    1.2245   -0.4397   -0.9975 C   0  0  0  0  0  0  0  0  0  0  0  0
    2.4521    0.4044   -0.4859 C   0  0  0  0  0  0  0  0  0  0  0  0
    3.6225    0.0530   -0.6595 O   0  0  0  0  0  0  0  0  0  0  0  0
    2.1053    1.5310    0.2511 N   0  0  0  0  0  0  0  0  0  0  0  0
    3.0865    2.2642    0.9597 C   0  0  0  0  0  0  0  0  0  0  0  0
    2.9139    2.3470    2.3451 C   0  0  0  0  0  0  0  0  0  0  0  0
    3.8719    2.9782    3.1417 C   0  0  0  0  0  0  0  0  0  0  0  0
    4.9863    3.5655    2.5447 C   0  0  0  0  0  0  0  0  0  0  0  0
    6.2755    4.4200    3.6319 Br  0  0  0  0  0  0  0  0  0  0  0  0
    5.1427    3.5431    1.1614 C   0  0  0  0  0  0  0  0  0  0  0  0
    4.1904    2.8972    0.3614 C   0  0  0  0  0  0  0  0  0  0  0  0
    4.3795    3.0716   -1.5254 Br  0  0  0  0  0  0  0  0  0  0  0  0
    1.5497   -1.2268   -2.3152 C   0  0  0  0  0  0  0  0  0  0  0  0
    0.8774   -0.7834   -3.6327 C   0  0  0  0  0  0  0  0  0  0  0  0
    1.0859   -1.2145   -4.7623 O   0  0  0  0  0  0  0  0  0  0  0  0
   -0.0487    0.1948   -3.4885 O   0  0  0  0  0  0  0  0  0  0  0  0
    3.4001   -4.9276   -2.7348 H   0  0  0  0  0  0  0  0  0  0  0  0
    1.7275   -4.8586   -3.2774 H   0  0  0  0  0  0  0  0  0  0  0  0
    2.8175   -3.4978   -3.5966 H   0  0  0  0  0  0  0  0  0  0  0  0
    3.0798   -3.2327   -1.0731 H   0  0  0  0  0  0  0  0  0  0  0  0
    1.8123   -4.4461   -0.8537 H   0  0  0  0  0  0  0  0  0  0  0  0
   -0.5972   -3.9435   -1.5906 H   0  0  0  0  0  0  0  0  0  0  0  0
   -0.1223   -3.4513   -3.2142 H   0  0  0  0  0  0  0  0  0  0  0  0
   -1.0262   -2.3328   -2.1934 H   0  0  0  0  0  0  0  0  0  0  0  0
    1.8469   -2.0013    0.3885 H   0  0  0  0  0  0  0  0  0  0  0  0
   -0.2739   -3.1261    0.7654 H   0  0  0  0  0  0  0  0  0  0  0  0
   -0.5254    0.4875    0.7884 H   0  0  0  0  0  0  0  0  0  0  0  0
   -2.9999   -0.8055   -0.3980 H   0  0  0  0  0  0  0  0  0  0  0  0
   -1.8189    0.2320   -1.1228 H   0  0  0  0  0  0  0  0  0  0  0  0
   -3.3737    1.8677   -1.2015 H   0  0  0  0  0  0  0  0  0  0  0  0
   -5.6006    1.8742   -0.2841 H   0  0  0  0  0  0  0  0  0  0  0  0
   -5.2895    0.1557   -0.5914 H   0  0  0  0  0  0  0  0  0  0  0  0
   -6.1606    0.2507    1.7318 H   0  0  0  0  0  0  0  0  0  0  0  0
   -4.9743    2.6870    2.6949 H   0  0  0  0  0  0  0  0  0  0  0  0
   -4.8744    1.2374    3.7338 H   0  0  0  0  0  0  0  0  0  0  0  0
   -3.7429    3.0804    0.9802 H   0  0  0  0  0  0  0  0  0  0  0  0
   -2.0806    2.5753    0.8559 H   0  0  0  0  0  0  0  0  0  0  0  0
   -1.9611   -0.0937    3.2212 H   0  0  0  0  0  0  0  0  0  0  0  0
   -1.2389    1.4208    2.7035 H   0  0  0  0  0  0  0  0  0  0  0  0
    0.3277    0.1711   -1.1020 H   0  0  0  0  0  0  0  0  0  0  0  0
    1.2017    1.4711    0.6959 H   0  0  0  0  0  0  0  0  0  0  0  0
    2.0609    1.8775    2.8283 H   0  0  0  0  0  0  0  0  0  0  0  0
    3.7378    3.0012    4.2195 H   0  0  0  0  0  0  0  0  0  0  0  0
    5.9959    4.0390    0.7053 H   0  0  0  0  0  0  0  0  0  0  0  0
    2.6353   -1.2480   -2.4998 H   0  0  0  0  0  0  0  0  0  0  0  0
   -0.3563    0.3463   -4.4085 H   0  0  0  0  0  0  0  0  0  0  0  0
  2  1  1  0  0  0  0
  3  2  1  0  0  0  0
  4  3  1  0  0  0  0
  5  3  1  0  0  0  0
  6  5  1  0  0  0  0
  7  6  1  0  0  0  0
  8  7  2  0  0  0  0
  9  7  1  0  0  0  0
 10  9  1  0  0  0  0
 11 10  1  0  0  0  0
 12 11  1  0  0  0  0
 13 12  1  0  0  0  0
 14 13  1  0  0  0  0
 15 14  1  0  0  0  0
 16 15  1  0  0  0  0
 16 11  1  0  0  0  0
 17 15  1  0  0  0  0
 17  9  1  0  0  0  0
 18 15  1  0  0  0  0
 18 13  1  0  0  0  0
 19  5  1  0  0  0  0
 20 19  1  0  0  0  0
 21 20  2  0  0  0  0
 22 20  1  0  0  0  0
 23 22  1  0  0  0  0
 24 23  2  0  0  0  0
 25 24  1  0  0  0  0
 26 25  2  0  0  0  0
 27 26  1  0  0  0  0
 28 26  1  0  0  0  0
 29 28  2  0  0  0  0
 29 23  1  0  0  0  0
 30 29  1  0  0  0  0
 31 19  1  0  0  0  0
 31  3  1  0  0  0  0
 32 31  1  0  0  0  0
 33 32  2  0  0  0  0
 34 32  1  0  0  0  0
  1 35  1  0  0  0  0
  1 36  1  0  0  0  0
  1 37  1  0  0  0  0
  2 38  1  0  0  0  0
  2 39  1  0  0  0  0
  4 40  1  0  0  0  0
  4 41  1  0  0  0  0
  4 42  1  0  0  0  0
  5 43  1  0  0  0  0
  6 44  1  0  0  0  0
  9 45  1  0  0  0  0
 10 46  1  0  0  0  0
 10 47  1  0  0  0  0
 11 48  1  0  0  0  0
 12 49  1  0  0  0  0
 12 50  1  0  0  0  0
 13 51  1  0  0  0  0
 14 52  1  0  0  0  0
 14 53  1  0  0  0  0
 16 54  1  0  0  0  0
 16 55  1  0  0  0  0
 17 56  1  0  0  0  0
 17 57  1  0  0  0  0
 19 58  1  0  0  0  0
 22 59  1  0  0  0  0
 24 60  1  0  0  0  0
 25 61  1  0  0  0  0
 28 62  1  0  0  0  0
 31 63  1  0  0  0  0
 34 64  1  0  0  0  0
M  END
>  <energy>
63.836852492575687

$$$$
