CC1(C)C(Nc2c(NC3CCC(CN)CC3)c(=O)c2=O)C2CC(Br)C21
                    3D

 53 56  0  0  0  0  0  0  0  0999 V2000
    2.0485    1.0444   -1.1944 C   0  0  0  0  0  0  0  0  0  0  0  0
    3.2251    0.0708   -1.2367 C   0  0  0  0  0  0  0  0  0  0  0  0
    3.5232   -0.2989   -2.6988 C   0  0  0  0  0  0  0  0  0  0  0  0
    3.2081   -1.2041   -0.3278 C   0  0  0  0  0  0  0  0  0  0  0  0
    1.9620   -1.4955    0.3623 N   0  0  0  0  0  0  0  0  0  0  0  0
    1.0441   -2.1823   -0.3088 C   0  0  0  0  0  0  0  0  0  0  0  0
   -0.1502   -1.9812   -0.9560 C   0  0  0  0  0  0  0  0  0  0  0  0
   -1.0174   -1.0124   -1.1956 N   0  0  0  0  0  0  0  0  0  0  0  0
   -1.7299   -0.3622   -0.0839 C   0  0  0  0  0  0  0  0  0  0  0  0
   -1.8204    1.1426   -0.3479 C   0  0  0  0  0  0  0  0  0  0  0  0
   -2.6711    1.8481    0.7086 C   0  0  0  0  0  0  0  0  0  0  0  0
   -4.0848    1.2498    0.7954 C   0  0  0  0  0  0  0  0  0  0  0  0
   -4.9105    1.9907    1.8639 C   0  0  0  0  0  0  0  0  0  0  0  0
   -6.3173    1.6111    1.8233 N   0  0  0  0  0  0  0  0  0  0  0  0
   -3.9998   -0.2606    1.0677 C   0  0  0  0  0  0  0  0  0  0  0  0
   -3.1323   -0.9777    0.0354 C   0  0  0  0  0  0  0  0  0  0  0  0
   -0.2172   -3.4003   -1.3898 C   0  0  0  0  0  0  0  0  0  0  0  0
   -0.9374   -4.1189   -2.0364 O   0  0  0  0  0  0  0  0  0  0  0  0
    1.0350   -3.6317   -0.6329 C   0  0  0  0  0  0  0  0  0  0  0  0
    1.7026   -4.6117   -0.4154 O   0  0  0  0  0  0  0  0  0  0  0  0
    4.2851   -0.5796    0.5657 C   0  0  0  0  0  0  0  0  0  0  0  0
    3.8593    0.5133    1.5551 C   0  0  0  0  0  0  0  0  0  0  0  0
    4.4128    1.5798    0.5864 C   0  0  0  0  0  0  0  0  0  0  0  0
    6.1269    2.3511    1.1211 Br  0  0  0  0  0  0  0  0  0  0  0  0
    4.5344    0.4988   -0.5034 C   0  0  0  0  0  0  0  0  0  0  0  0
    1.1970    0.6509   -1.7571 H   0  0  0  0  0  0  0  0  0  0  0  0
    2.3185    2.0037   -1.6506 H   0  0  0  0  0  0  0  0  0  0  0  0
    1.7019    1.2448   -0.1775 H   0  0  0  0  0  0  0  0  0  0  0  0
    2.6623   -0.8018   -3.1519 H   0  0  0  0  0  0  0  0  0  0  0  0
    4.3832   -0.9732   -2.7805 H   0  0  0  0  0  0  0  0  0  0  0  0
    3.7467    0.5954   -3.2907 H   0  0  0  0  0  0  0  0  0  0  0  0
    3.6017   -2.1098   -0.8121 H   0  0  0  0  0  0  0  0  0  0  0  0
    2.2273   -1.9301    1.2512 H   0  0  0  0  0  0  0  0  0  0  0  0
   -1.6537   -1.1420   -1.9868 H   0  0  0  0  0  0  0  0  0  0  0  0
   -1.1881   -0.5154    0.8599 H   0  0  0  0  0  0  0  0  0  0  0  0
   -2.2454    1.3277   -1.3428 H   0  0  0  0  0  0  0  0  0  0  0  0
   -0.8164    1.5812   -0.3550 H   0  0  0  0  0  0  0  0  0  0  0  0
   -2.1753    1.7745    1.6848 H   0  0  0  0  0  0  0  0  0  0  0  0
   -2.7315    2.9146    0.4624 H   0  0  0  0  0  0  0  0  0  0  0  0
   -4.5715    1.3993   -0.1797 H   0  0  0  0  0  0  0  0  0  0  0  0
   -4.5077    1.7953    2.8642 H   0  0  0  0  0  0  0  0  0  0  0  0
   -4.8443    3.0714    1.6931 H   0  0  0  0  0  0  0  0  0  0  0  0
   -6.8478    2.1579    2.5024 H   0  0  0  0  0  0  0  0  0  0  0  0
   -6.4407    0.6366    2.0959 H   0  0  0  0  0  0  0  0  0  0  0  0
   -4.9991   -0.7103    1.0504 H   0  0  0  0  0  0  0  0  0  0  0  0
   -3.5878   -0.4362    2.0691 H   0  0  0  0  0  0  0  0  0  0  0  0
   -3.6395   -0.9411   -0.9381 H   0  0  0  0  0  0  0  0  0  0  0  0
   -3.0542   -2.0397    0.2994 H   0  0  0  0  0  0  0  0  0  0  0  0
    5.1468   -1.1912    0.8405 H   0  0  0  0  0  0  0  0  0  0  0  0
    4.3638    0.4503    2.5254 H   0  0  0  0  0  0  0  0  0  0  0  0
    2.7860    0.5990    1.7532 H   0  0  0  0  0  0  0  0  0  0  0  0
    3.7143    2.3926    0.3687 H   0  0  0  0  0  0  0  0  0  0  0  0
    5.4744    0.4123   -1.0551 H   0  0  0  0  0  0  0  0  0  0  0  0
  2  1  1  0  0  0  0
  3  2  1  0  0  0  0
  4  2  1  0  0  0  0
  5  4  1  0  0  0  0
  6  5  1  0  0  0  0
  7  6  2  0  0  0  0
  8  7  1  0  0  0  0
  9  8  1  0  0  0  0
 10  9  1  0  0  0  0
 11 10  1  0  0  0  0
 12 11  1  0  0  0  0
 13 12  1  0  0  0  0
 14 13  1  0  0  0  0
 15 12  1  0  0  0  0
 16 15  1  0  0  0  0
 16  9  1  0  0  0  0
 17  7  1  0  0  0  0
 18 17  2  0  0  0  0
 19 17  1  0  0  0  0
 19  6  1  0  0  0  0
 20 19  2  0  0  0  0
 21  4  1  0  0  0  0
 22 21  1  0  0  0  0
 23 22  1  0  0  0  0
 24 23  1  0  0  0  0
 25 23  1  0  0  0  0
 25 21  1  0  0  0  0
 25  2  1  0  0  0  0
  1 26  1  0  0  0  0
  1 27  1  0  0  0  0
  1 28  1  0  0  0  0
  3 29  1  0  0  0  0
  3 30  1  0  0  0  0
  3 31  1  0  0  0  0
  4 32  1  0  0  0  0
  5 33  1  0  0  0  0
  8 34  1  0  0  0  0
  9 35  1  0  0  0  0
 10 36  1  0  0  0  0
 10 37  1  0  0  0  0
 11 38  1  0  0  0  0
 11 39  1  0  0  0  0
 12 40  1  0  0  0  0
 13 41  1  0  0  0  0
 13 42  1  0  0  0  0
 14 43  1  0  0  0  0
 14 44  1  0  0  0  0
 15 45  1  0  0  0  0
 15 46  1  0  0  0  0
 16 47  1  0  0  0  0
 16 48  1  0  0  0  0
 21 49  1  0  0  0  0
 22 50  1  0  0  0  0
 22 51  1  0  0  0  0
 23 52  1  0  0  0  0
 25 53  1  0  0  0  0
M  END
>  <energy>
168.0625432674268

$$$$
