C#CC1CC1SC1C2N(C(=O)C(C)C)C(C)(C)C2(O)C1(O)C#CC(C)(O)O
                    3D

 54 56  0  0  0  0  0  0  0  0999 V2000
   -4.7726   -3.6414    0.4559 C   0  0  0  0  0  0  0  0  0  0  0  0
   -4.5510   -2.5926   -0.0798 C   0  0  0  0  0  0  0  0  0  0  0  0
   -4.2866   -1.3344   -0.7198 C   0  0  0  0  0  0  0  0  0  0  0  0
   -2.9786   -1.1736   -1.4501 C   0  0  0  0  0  0  0  0  0  0  0  0
   -3.2354   -0.3784   -0.1991 C   0  0  0  0  0  0  0  0  0  0  0  0
   -2.3094   -0.6936    1.2434 S   0  0  0  0  0  0  0  0  0  0  0  0
   -0.6555   -0.0498    0.7624 C   0  0  0  0  0  0  0  0  0  0  0  0
    0.4631   -0.6300    1.6379 C   0  0  0  0  0  0  0  0  0  0  0  0
    1.7303   -0.7961    0.9558 N   0  0  0  0  0  0  0  0  0  0  0  0
    2.1530   -1.6793   -0.0027 C   0  0  0  0  0  0  0  0  0  0  0  0
    3.2057   -1.5258   -0.6179 O   0  0  0  0  0  0  0  0  0  0  0  0
    1.2592   -2.8918   -0.2311 C   0  0  0  0  0  0  0  0  0  0  0  0
    1.3549   -3.3699   -1.6773 C   0  0  0  0  0  0  0  0  0  0  0  0
    1.6655   -4.0041    0.7283 C   0  0  0  0  0  0  0  0  0  0  0  0
    2.2749    0.5047    1.3485 C   0  0  0  0  0  0  0  0  0  0  0  0
    3.4340    0.2881    2.3322 C   0  0  0  0  0  0  0  0  0  0  0  0
    2.7183    1.3524    0.1655 C   0  0  0  0  0  0  0  0  0  0  0  0
    0.9176    0.7858    2.0648 C   0  0  0  0  0  0  0  0  0  0  0  0
    0.9663    1.0743    3.4905 O   0  0  0  0  0  0  0  0  0  0  0  0
   -0.3377    1.3654    1.3221 C   0  0  0  0  0  0  0  0  0  0  0  0
   -1.2930    1.9237    2.2754 O   0  0  0  0  0  0  0  0  0  0  0  0
   -0.1923    2.3697    0.2940 C   0  0  0  0  0  0  0  0  0  0  0  0
   -0.2127    3.1671   -0.6069 C   0  0  0  0  0  0  0  0  0  0  0  0
   -0.3057    4.0898   -1.7418 C   0  0  0  0  0  0  0  0  0  0  0  0
   -1.4430    3.6838   -2.6716 C   0  0  0  0  0  0  0  0  0  0  0  0
    0.9018    4.0808   -2.4694 O   0  0  0  0  0  0  0  0  0  0  0  0
   -0.5039    5.4012   -1.2666 O   0  0  0  0  0  0  0  0  0  0  0  0
   -4.9628   -4.5688    0.9462 H   0  0  0  0  0  0  0  0  0  0  0  0
   -5.1539   -0.8828   -1.1957 H   0  0  0  0  0  0  0  0  0  0  0  0
   -2.2685   -1.9934   -1.4188 H   0  0  0  0  0  0  0  0  0  0  0  0
   -2.9967   -0.6525   -2.4019 H   0  0  0  0  0  0  0  0  0  0  0  0
   -3.4633    0.6747   -0.3350 H   0  0  0  0  0  0  0  0  0  0  0  0
   -0.4636   -0.1677   -0.3120 H   0  0  0  0  0  0  0  0  0  0  0  0
    0.2501   -1.3436    2.4367 H   0  0  0  0  0  0  0  0  0  0  0  0
    0.2168   -2.6187   -0.0431 H   0  0  0  0  0  0  0  0  0  0  0  0
    2.3662   -3.7079   -1.9300 H   0  0  0  0  0  0  0  0  0  0  0  0
    0.6665   -4.2043   -1.8489 H   0  0  0  0  0  0  0  0  0  0  0  0
    1.0941   -2.5623   -2.3707 H   0  0  0  0  0  0  0  0  0  0  0  0
    2.7027   -4.3140    0.5584 H   0  0  0  0  0  0  0  0  0  0  0  0
    1.5907   -3.6810    1.7712 H   0  0  0  0  0  0  0  0  0  0  0  0
    1.0274   -4.8831    0.5939 H   0  0  0  0  0  0  0  0  0  0  0  0
    3.7370    1.2364    2.7870 H   0  0  0  0  0  0  0  0  0  0  0  0
    3.1603   -0.3993    3.1409 H   0  0  0  0  0  0  0  0  0  0  0  0
    4.3093   -0.1391    1.8297 H   0  0  0  0  0  0  0  0  0  0  0  0
    2.0365    1.2750   -0.6857 H   0  0  0  0  0  0  0  0  0  0  0  0
    3.7052    1.0427   -0.1967 H   0  0  0  0  0  0  0  0  0  0  0  0
    2.8022    2.4056    0.4536 H   0  0  0  0  0  0  0  0  0  0  0  0
    0.1376    1.5708    3.6540 H   0  0  0  0  0  0  0  0  0  0  0  0
   -2.1566    1.8112    1.8384 H   0  0  0  0  0  0  0  0  0  0  0  0
   -1.4952    4.3476   -3.5422 H   0  0  0  0  0  0  0  0  0  0  0  0
   -1.2996    2.6641   -3.0526 H   0  0  0  0  0  0  0  0  0  0  0  0
   -2.4148    3.7417   -2.1689 H   0  0  0  0  0  0  0  0  0  0  0  0
    1.6061    4.0861   -1.7993 H   0  0  0  0  0  0  0  0  0  0  0  0
   -0.7012    5.9362   -2.0511 H   0  0  0  0  0  0  0  0  0  0  0  0
  2  1  3  0  0  0  0
  3  2  1  0  0  0  0
  4  3  1  0  0  0  0
  5  4  1  0  0  0  0
  5  3  1  0  0  0  0
  6  5  1  0  0  0  0
  7  6  1  0  0  0  0
  8  7  1  0  0  0  0
  9  8  1  0  0  0  0
 10  9  1  0  0  0  0
 11 10  2  0  0  0  0
 12 10  1  0  0  0  0
 13 12  1  0  0  0  0
 14 12  1  0  0  0  0
 15  9  1  0  0  0  0
 16 15  1  0  0  0  0
 17 15  1  0  0  0  0
 18 15  1  0  0  0  0
 18  8  1  0  0  0  0
 19 18  1  0  0  0  0
 20 18  1  0  0  0  0
 20  7  1  0  0  0  0
 21 20  1  0  0  0  0
 22 20  1  0  0  0  0
 23 22  3  0  0  0  0
 24 23  1  0  0  0  0
 25 24  1  0  0  0  0
 26 24  1  0  0  0  0
 27 24  1  0  0  0  0
  1 28  1  0  0  0  0
  3 29  1  0  0  0  0
  4 30  1  0  0  0  0
  4 31  1  0  0  0  0
  5 32  1  0  0  0  0
  7 33  1  0  0  0  0
  8 34  1  0  0  0  0
 12 35  1  0  0  0  0
 13 36  1  0  0  0  0
 13 37  1  0  0  0  0
 13 38  1  0  0  0  0
 14 39  1  0  0  0  0
 14 40  1  0  0  0  0
 14 41  1  0  0  0  0
 16 42  1  0  0  0  0
 16 43  1  0  0  0  0
 16 44  1  0  0  0  0
 17 45  1  0  0  0  0
 17 46  1  0  0  0  0
 17 47  1  0  0  0  0
 19 48  1  0  0  0  0
 21 49  1  0  0  0  0
 25 50  1  0  0  0  0
 25 51  1  0  0  0  0
 25 52  1  0  0  0  0
 26 53  1  0  0  0  0
 27 54  1  0  0  0  0
M  END
>  <energy>
36.724787169836617

$$$$
