COC12C3CN4C(O)C(CS)(C1C1(CO)C#CC=CC4(C)C1=CN3C)C21CN1
                    3D

 55 60  0  0  0  0  0  0  0  0999 V2000
   -0.4924    4.0362    0.4958 C   0  0  0  0  0  0  0  0  0  0  0  0
   -0.6115    2.8880   -0.3316 O   0  0  0  0  0  0  0  0  0  0  0  0
    0.0348    1.6218    0.0677 C   0  0  0  0  0  0  0  0  0  0  0  0
   -0.4788    1.1663    1.5359 C   0  0  0  0  0  0  0  0  0  0  0  0
    0.2033   -0.0953    2.1547 C   0  0  0  0  0  0  0  0  0  0  0  0
    0.4522   -1.3004    1.3268 N   0  0  0  0  0  0  0  0  0  0  0  0
    1.6087   -1.0029    0.4128 C   0  0  0  0  0  0  0  0  0  0  0  0
    2.7306   -0.7593    1.2602 O   0  0  0  0  0  0  0  0  0  0  0  0
    1.5211    0.1456   -0.6831 C   0  0  0  0  0  0  0  0  0  0  0  0
    2.5704   -0.0937   -1.8128 C   0  0  0  0  0  0  0  0  0  0  0  0
    4.3545   -0.0873   -1.3851 S   0  0  0  0  0  0  0  0  0  0  0  0
    0.0227    0.5477   -1.3301 C   0  0  0  0  0  0  0  0  0  0  0  0
   -0.9189   -0.7313   -1.6735 C   0  0  0  0  0  0  0  0  0  0  0  0
   -0.1543   -1.5175   -2.7846 C   0  0  0  0  0  0  0  0  0  0  0  0
    0.6755   -2.5746   -2.3585 O   0  0  0  0  0  0  0  0  0  0  0  0
   -2.3456   -1.2787   -1.8598 C   0  0  0  0  0  0  0  0  0  0  0  0
   -3.0543   -2.0307   -1.2086 C   0  0  0  0  0  0  0  0  0  0  0  0
   -3.1726   -2.6006    0.1570 C   0  0  0  0  0  0  0  0  0  0  0  0
   -2.1287   -2.4739    1.0668 C   0  0  0  0  0  0  0  0  0  0  0  0
   -0.7177   -1.9020    0.6146 C   0  0  0  0  0  0  0  0  0  0  0  0
   -0.2182   -3.3051    0.1205 C   0  0  0  0  0  0  0  0  0  0  0  0
   -1.1916   -0.7697   -0.2164 C   0  0  0  0  0  0  0  0  0  0  0  0
   -2.0916    0.1803    0.2527 C   0  0  0  0  0  0  0  0  0  0  0  0
   -1.9101    0.7981    1.4628 N   0  0  0  0  0  0  0  0  0  0  0  0
   -2.8735    1.7662    1.9694 C   0  0  0  0  0  0  0  0  0  0  0  0
    1.5124    1.5502   -0.1222 C   0  0  0  0  0  0  0  0  0  0  0  0
    2.5877    2.2890    0.5976 C   0  0  0  0  0  0  0  0  0  0  0  0
    2.2424    2.6483   -0.7765 N   0  0  0  0  0  0  0  0  0  0  0  0
   -0.3126    4.9038   -0.1442 H   0  0  0  0  0  0  0  0  0  0  0  0
    0.3251    3.9565    1.2129 H   0  0  0  0  0  0  0  0  0  0  0  0
   -1.4271    4.1985    1.0352 H   0  0  0  0  0  0  0  0  0  0  0  0
   -0.3317    1.9928    2.2411 H   0  0  0  0  0  0  0  0  0  0  0  0
   -0.3985   -0.4257    3.0140 H   0  0  0  0  0  0  0  0  0  0  0  0
    1.1398    0.2346    2.6201 H   0  0  0  0  0  0  0  0  0  0  0  0
    1.9040   -1.9049   -0.1148 H   0  0  0  0  0  0  0  0  0  0  0  0
    2.6541   -1.4537    1.9366 H   0  0  0  0  0  0  0  0  0  0  0  0
    2.4177   -1.0671   -2.2729 H   0  0  0  0  0  0  0  0  0  0  0  0
    2.4404    0.6420   -2.6145 H   0  0  0  0  0  0  0  0  0  0  0  0
    4.6177   -1.3279   -1.8175 H   0  0  0  0  0  0  0  0  0  0  0  0
    0.0833    1.1514   -2.2520 H   0  0  0  0  0  0  0  0  0  0  0  0
    0.4664   -0.8308   -3.3700 H   0  0  0  0  0  0  0  0  0  0  0  0
   -0.8411   -1.9225   -3.5419 H   0  0  0  0  0  0  0  0  0  0  0  0
    0.2469   -3.4055   -2.6367 H   0  0  0  0  0  0  0  0  0  0  0  0
   -4.1200   -3.0383    0.4511 H   0  0  0  0  0  0  0  0  0  0  0  0
   -2.2196   -2.8454    2.0813 H   0  0  0  0  0  0  0  0  0  0  0  0
    0.8132   -3.3790   -0.2106 H   0  0  0  0  0  0  0  0  0  0  0  0
   -0.2634   -4.0360    0.9429 H   0  0  0  0  0  0  0  0  0  0  0  0
   -0.8219   -3.7133   -0.6997 H   0  0  0  0  0  0  0  0  0  0  0  0
   -2.6439    0.8379   -0.4260 H   0  0  0  0  0  0  0  0  0  0  0  0
   -2.9877    2.6161    1.2914 H   0  0  0  0  0  0  0  0  0  0  0  0
   -3.8521    1.2872    2.0813 H   0  0  0  0  0  0  0  0  0  0  0  0
   -2.5735    2.1328    2.9562 H   0  0  0  0  0  0  0  0  0  0  0  0
    3.5455    1.8042    0.7428 H   0  0  0  0  0  0  0  0  0  0  0  0
    2.3373    3.0041    1.3685 H   0  0  0  0  0  0  0  0  0  0  0  0
    1.6454    3.4737   -0.8270 H   0  0  0  0  0  0  0  0  0  0  0  0
  2  1  1  0  0  0  0
  3  2  1  0  0  0  0
  4  3  1  0  0  0  0
  5  4  1  0  0  0  0
  6  5  1  0  0  0  0
  7  6  1  0  0  0  0
  8  7  1  0  0  0  0
  9  7  1  0  0  0  0
 10  9  1  0  0  0  0
 11 10  1  0  0  0  0
 12  9  1  0  0  0  0
 12  3  1  0  0  0  0
 13 12  1  0  0  0  0
 14 13  1  0  0  0  0
 15 14  1  0  0  0  0
 16 13  1  0  0  0  0
 17 16  3  0  0  0  0
 18 17  1  0  0  0  0
 19 18  2  0  0  0  0
 20 19  1  0  0  0  0
 20  6  1  0  0  0  0
 21 20  1  0  0  0  0
 22 20  1  0  0  0  0
 22 13  1  0  0  0  0
 23 22  2  0  0  0  0
 24 23  1  0  0  0  0
 24  4  1  0  0  0  0
 25 24  1  0  0  0  0
 26  9  1  0  0  0  0
 26  3  1  0  0  0  0
 27 26  1  0  0  0  0
 28 27  1  0  0  0  0
 28 26  1  0  0  0  0
  1 29  1  0  0  0  0
  1 30  1  0  0  0  0
  1 31  1  0  0  0  0
  4 32  1  0  0  0  0
  5 33  1  0  0  0  0
  5 34  1  0  0  0  0
  7 35  1  0  0  0  0
  8 36  1  0  0  0  0
 10 37  1  0  0  0  0
 10 38  1  0  0  0  0
 11 39  1  0  0  0  0
 12 40  1  0  0  0  0
 14 41  1  0  0  0  0
 14 42  1  0  0  0  0
 15 43  1  0  0  0  0
 18 44  1  0  0  0  0
 19 45  1  0  0  0  0
 21 46  1  0  0  0  0
 21 47  1  0  0  0  0
 21 48  1  0  0  0  0
 23 49  1  0  0  0  0
 25 50  1  0  0  0  0
 25 51  1  0  0  0  0
 25 52  1  0  0  0  0
 27 53  1  0  0  0  0
 27 54  1  0  0  0  0
 28 55  1  0  0  0  0
M  END
>  <energy>
355.71962335334513

$$$$
