C=C1C(=O)CCC2C34CC5C3C2(C(=O)OC(C)=O)C4CC1C5(C)C
                    3D

 48 52  0  0  0  0  0  0  0  0999 V2000
    3.9716   -0.1380    0.4096 C   0  0  0  0  0  0  0  0  0  0  0  0
    2.7124   -0.5328    0.1490 C   0  0  0  0  0  0  0  0  0  0  0  0
    2.1953   -1.5716    1.1558 C   0  0  0  0  0  0  0  0  0  0  0  0
    2.3416   -2.7659    0.8874 O   0  0  0  0  0  0  0  0  0  0  0  0
    1.4727   -1.1427    2.4709 C   0  0  0  0  0  0  0  0  0  0  0  0
   -0.1067   -1.3176    2.5553 C   0  0  0  0  0  0  0  0  0  0  0  0
   -0.9728   -0.3065    1.7061 C   0  0  0  0  0  0  0  0  0  0  0  0
    0.0846    0.3053    0.8794 C   0  0  0  0  0  0  0  0  0  0  0  0
    0.6589    1.6767    0.8960 C   0  0  0  0  0  0  0  0  0  0  0  0
    0.2639    1.7327   -0.5869 C   0  0  0  0  0  0  0  0  0  0  0  0
   -1.0633    0.9993   -0.0569 C   0  0  0  0  0  0  0  0  0  0  0  0
   -1.5074   -0.4510    0.1120 C   0  0  0  0  0  0  0  0  0  0  0  0
   -2.8323   -1.0153   -0.3005 C   0  0  0  0  0  0  0  0  0  0  0  0
   -3.2528   -0.9891   -1.4575 O   0  0  0  0  0  0  0  0  0  0  0  0
   -3.5226   -1.5165    0.7562 O   0  0  0  0  0  0  0  0  0  0  0  0
   -4.8439   -1.7332    0.5402 C   0  0  0  0  0  0  0  0  0  0  0  0
   -5.6211   -0.5365    0.0564 C   0  0  0  0  0  0  0  0  0  0  0  0
   -5.3862   -2.7902    0.8492 O   0  0  0  0  0  0  0  0  0  0  0  0
   -0.1122   -0.9223   -0.1523 C   0  0  0  0  0  0  0  0  0  0  0  0
    0.7393   -1.1118   -1.3710 C   0  0  0  0  0  0  0  0  0  0  0  0
    1.9542   -0.2044   -1.1953 C   0  0  0  0  0  0  0  0  0  0  0  0
    1.4428    1.2744   -1.5110 C   0  0  0  0  0  0  0  0  0  0  0  0
    2.6011    2.2966   -1.4149 C   0  0  0  0  0  0  0  0  0  0  0  0
    0.9223    1.3920   -2.9721 C   0  0  0  0  0  0  0  0  0  0  0  0
    4.5097   -0.4586    1.2979 H   0  0  0  0  0  0  0  0  0  0  0  0
    4.5328    0.4738   -0.2913 H   0  0  0  0  0  0  0  0  0  0  0  0
    1.7753   -0.1216    2.7349 H   0  0  0  0  0  0  0  0  0  0  0  0
    1.9100   -1.7819    3.2507 H   0  0  0  0  0  0  0  0  0  0  0  0
   -0.3753   -2.3493    2.2944 H   0  0  0  0  0  0  0  0  0  0  0  0
   -0.3826   -1.1874    3.6080 H   0  0  0  0  0  0  0  0  0  0  0  0
   -1.5731    0.3585    2.3376 H   0  0  0  0  0  0  0  0  0  0  0  0
    0.1347    2.3867    1.5533 H   0  0  0  0  0  0  0  0  0  0  0  0
    1.7144    1.7662    1.1566 H   0  0  0  0  0  0  0  0  0  0  0  0
    0.0102    2.7650   -0.8813 H   0  0  0  0  0  0  0  0  0  0  0  0
   -1.7680    1.7064    0.4090 H   0  0  0  0  0  0  0  0  0  0  0  0
   -6.6058   -0.5437    0.5365 H   0  0  0  0  0  0  0  0  0  0  0  0
   -5.7516   -0.5680   -1.0280 H   0  0  0  0  0  0  0  0  0  0  0  0
   -5.1315    0.3965    0.3551 H   0  0  0  0  0  0  0  0  0  0  0  0
   -0.1031   -1.9513    0.2412 H   0  0  0  0  0  0  0  0  0  0  0  0
    0.1681   -0.9516   -2.2859 H   0  0  0  0  0  0  0  0  0  0  0  0
    1.0766   -2.1548   -1.4486 H   0  0  0  0  0  0  0  0  0  0  0  0
    2.6685   -0.4614   -1.9947 H   0  0  0  0  0  0  0  0  0  0  0  0
    2.9825    2.4280   -0.3986 H   0  0  0  0  0  0  0  0  0  0  0  0
    2.2764    3.2922   -1.7419 H   0  0  0  0  0  0  0  0  0  0  0  0
    3.4465    2.0030   -2.0477 H   0  0  0  0  0  0  0  0  0  0  0  0
    1.6561    1.0175   -3.6938 H   0  0  0  0  0  0  0  0  0  0  0  0
    0.7129    2.4396   -3.2320 H   0  0  0  0  0  0  0  0  0  0  0  0
   -0.0231    0.8648   -3.1368 H   0  0  0  0  0  0  0  0  0  0  0  0
  2  1  2  0  0  0  0
  3  2  1  0  0  0  0
  4  3  2  0  0  0  0
  5  3  1  0  0  0  0
  6  5  1  0  0  0  0
  7  6  1  0  0  0  0
  8  7  1  0  0  0  0
  9  8  1  0  0  0  0
 10  9  1  0  0  0  0
 11 10  1  0  0  0  0
 11  8  1  0  0  0  0
 12 11  1  0  0  0  0
 12  7  1  0  0  0  0
 13 12  1  0  0  0  0
 14 13  2  0  0  0  0
 15 13  1  0  0  0  0
 16 15  1  0  0  0  0
 17 16  1  0  0  0  0
 18 16  2  0  0  0  0
 19 12  1  0  0  0  0
 19  8  1  0  0  0  0
 20 19  1  0  0  0  0
 21 20  1  0  0  0  0
 21  2  1  0  0  0  0
 22 21  1  0  0  0  0
 22 10  1  0  0  0  0
 23 22  1  0  0  0  0
 24 22  1  0  0  0  0
  1 25  1  0  0  0  0
  1 26  1  0  0  0  0
  5 27  1  0  0  0  0
  5 28  1  0  0  0  0
  6 29  1  0  0  0  0
  6 30  1  0  0  0  0
  7 31  1  0  0  0  0
  9 32  1  0  0  0  0
  9 33  1  0  0  0  0
 10 34  1  0  0  0  0
 11 35  1  0  0  0  0
 17 36  1  0  0  0  0
 17 37  1  0  0  0  0
 17 38  1  0  0  0  0
 19 39  1  0  0  0  0
 20 40  1  0  0  0  0
 20 41  1  0  0  0  0
 21 42  1  0  0  0  0
 23 43  1  0  0  0  0
 23 44  1  0  0  0  0
 23 45  1  0  0  0  0
 24 46  1  0  0  0  0
 24 47  1  0  0  0  0
 24 48  1  0  0  0  0
M  END
>  <energy>
186.99075623730732

$$$$
