CCCC1(C)Oc2[nH]c3c(c2OC(C)C(O)C3(C)C)C(=O)C1(C)C
                    3D

 53 55  0  0  0  0  0  0  0  0999 V2000
    3.6489   -3.0450    0.3150 C   0  0  0  0  0  0  0  0  0  0  0  0
    2.9975   -1.9564    1.1573 C   0  0  0  0  0  0  0  0  0  0  0  0
    2.8183   -0.6456    0.3681 C   0  0  0  0  0  0  0  0  0  0  0  0
    2.1128    0.5167    1.1552 C   0  0  0  0  0  0  0  0  0  0  0  0
    3.0571    0.9448    2.3064 C   0  0  0  0  0  0  0  0  0  0  0  0
    0.9704   -0.0232    1.8880 O   0  0  0  0  0  0  0  0  0  0  0  0
   -0.1798   -0.1163    1.2212 C   0  0  0  0  0  0  0  0  0  0  0  0
   -0.3832   -1.1009    0.2449 N   0  0  0  0  0  0  0  0  0  0  0  0
   -0.9653   -0.4254   -0.8412 C   0  0  0  0  0  0  0  0  0  0  0  0
   -0.5650    0.8856   -0.5244 C   0  0  0  0  0  0  0  0  0  0  0  0
   -1.0806    0.8484    0.7864 C   0  0  0  0  0  0  0  0  0  0  0  0
   -2.3695    0.6959    1.2099 O   0  0  0  0  0  0  0  0  0  0  0  0
   -3.4540    0.8068    0.2697 C   0  0  0  0  0  0  0  0  0  0  0  0
   -4.6302    0.1242    0.9788 C   0  0  0  0  0  0  0  0  0  0  0  0
   -3.2899    0.3111   -1.2162 C   0  0  0  0  0  0  0  0  0  0  0  0
   -4.5580    0.0160   -1.8209 O   0  0  0  0  0  0  0  0  0  0  0  0
   -2.2631   -0.8447   -1.4944 C   0  0  0  0  0  0  0  0  0  0  0  0
   -2.7608   -2.2145   -1.0018 C   0  0  0  0  0  0  0  0  0  0  0  0
   -2.0486   -0.9527   -3.0190 C   0  0  0  0  0  0  0  0  0  0  0  0
    0.7664    1.4122   -0.9079 C   0  0  0  0  0  0  0  0  0  0  0  0
    1.0422    1.5332   -2.0994 O   0  0  0  0  0  0  0  0  0  0  0  0
    1.7886    1.7806    0.2169 C   0  0  0  0  0  0  0  0  0  0  0  0
    3.0694    2.3063   -0.4872 C   0  0  0  0  0  0  0  0  0  0  0  0
    1.2221    2.9892    1.0020 C   0  0  0  0  0  0  0  0  0  0  0  0
    3.0831   -3.2203   -0.6061 H   0  0  0  0  0  0  0  0  0  0  0  0
    3.6824   -3.9857    0.8736 H   0  0  0  0  0  0  0  0  0  0  0  0
    4.6762   -2.7733    0.0533 H   0  0  0  0  0  0  0  0  0  0  0  0
    2.0293   -2.3235    1.5120 H   0  0  0  0  0  0  0  0  0  0  0  0
    3.6225   -1.7887    2.0401 H   0  0  0  0  0  0  0  0  0  0  0  0
    3.8103   -0.3176    0.0278 H   0  0  0  0  0  0  0  0  0  0  0  0
    2.2383   -0.8797   -0.5340 H   0  0  0  0  0  0  0  0  0  0  0  0
    4.0440    1.2544    1.9508 H   0  0  0  0  0  0  0  0  0  0  0  0
    3.1996    0.1283    3.0216 H   0  0  0  0  0  0  0  0  0  0  0  0
    2.6221    1.7544    2.9019 H   0  0  0  0  0  0  0  0  0  0  0  0
   -0.3886   -2.0942    0.4380 H   0  0  0  0  0  0  0  0  0  0  0  0
   -3.7176    1.8727    0.2103 H   0  0  0  0  0  0  0  0  0  0  0  0
   -4.8103    0.5988    1.9512 H   0  0  0  0  0  0  0  0  0  0  0  0
   -4.3995   -0.9263    1.1888 H   0  0  0  0  0  0  0  0  0  0  0  0
   -5.5645    0.1747    0.4124 H   0  0  0  0  0  0  0  0  0  0  0  0
   -2.9174    1.1926   -1.7645 H   0  0  0  0  0  0  0  0  0  0  0  0
   -4.9585    0.8657   -2.0786 H   0  0  0  0  0  0  0  0  0  0  0  0
   -2.9242   -2.2383    0.0791 H   0  0  0  0  0  0  0  0  0  0  0  0
   -3.6971   -2.5022   -1.4910 H   0  0  0  0  0  0  0  0  0  0  0  0
   -2.0254   -2.9963   -1.2294 H   0  0  0  0  0  0  0  0  0  0  0  0
   -1.2825   -1.6960   -3.2618 H   0  0  0  0  0  0  0  0  0  0  0  0
   -1.7225   -0.0006   -3.4525 H   0  0  0  0  0  0  0  0  0  0  0  0
   -2.9702   -1.2487   -3.5315 H   0  0  0  0  0  0  0  0  0  0  0  0
    2.8433    3.1756   -1.1193 H   0  0  0  0  0  0  0  0  0  0  0  0
    3.8302    2.6305    0.2295 H   0  0  0  0  0  0  0  0  0  0  0  0
    3.5235    1.5573   -1.1424 H   0  0  0  0  0  0  0  0  0  0  0  0
    2.0110    3.5343    1.5293 H   0  0  0  0  0  0  0  0  0  0  0  0
    0.4837    2.7016    1.7526 H   0  0  0  0  0  0  0  0  0  0  0  0
    0.7329    3.7045    0.3316 H   0  0  0  0  0  0  0  0  0  0  0  0
  2  1  1  0  0  0  0
  3  2  1  0  0  0  0
  4  3  1  0  0  0  0
  5  4  1  0  0  0  0
  6  4  1  0  0  0  0
  7  6  1  0  0  0  0
  8  7  1  0  0  0  0
  9  8  1  0  0  0  0
 10  9  2  0  0  0  0
 11 10  1  0  0  0  0
 11  7  2  0  0  0  0
 12 11  1  0  0  0  0
 13 12  1  0  0  0  0
 14 13  1  0  0  0  0
 15 13  1  0  0  0  0
 16 15  1  0  0  0  0
 17 15  1  0  0  0  0
 17  9  1  0  0  0  0
 18 17  1  0  0  0  0
 19 17  1  0  0  0  0
 20 10  1  0  0  0  0
 21 20  2  0  0  0  0
 22 20  1  0  0  0  0
 22  4  1  0  0  0  0
 23 22  1  0  0  0  0
 24 22  1  0  0  0  0
  1 25  1  0  0  0  0
  1 26  1  0  0  0  0
  1 27  1  0  0  0  0
  2 28  1  0  0  0  0
  2 29  1  0  0  0  0
  3 30  1  0  0  0  0
  3 31  1  0  0  0  0
  5 32  1  0  0  0  0
  5 33  1  0  0  0  0
  5 34  1  0  0  0  0
  8 35  1  0  0  0  0
 13 36  1  0  0  0  0
 14 37  1  0  0  0  0
 14 38  1  0  0  0  0
 14 39  1  0  0  0  0
 15 40  1  0  0  0  0
 16 41  1  0  0  0  0
 18 42  1  0  0  0  0
 18 43  1  0  0  0  0
 18 44  1  0  0  0  0
 19 45  1  0  0  0  0
 19 46  1  0  0  0  0
 19 47  1  0  0  0  0
 23 48  1  0  0  0  0
 23 49  1  0  0  0  0
 23 50  1  0  0  0  0
 24 51  1  0  0  0  0
 24 52  1  0  0  0  0
 24 53  1  0  0  0  0
M  END
>  <energy>
233.45644515243757

$$$$
