O=c1[nH]c(=O)n2c3ccccc3c3c4ccccc(c(CCO)c14)c32
                    3D

 39 43  0  0  0  0  0  0  0  0999 V2000
   -2.1194   -0.5438   -2.7767 O   0  0  0  0  0  0  0  0  0  0  0  0
   -1.1407   -0.0582   -2.2244 C   0  0  0  0  0  0  0  0  0  0  0  0
   -0.8645    1.3231   -2.1843 N   0  0  0  0  0  0  0  0  0  0  0  0
   -1.4220    2.0423   -1.1367 C   0  0  0  0  0  0  0  0  0  0  0  0
   -2.3005    2.8865   -1.2196 O   0  0  0  0  0  0  0  0  0  0  0  0
   -0.9693    1.6009    0.1413 N   0  0  0  0  0  0  0  0  0  0  0  0
   -1.7661    1.5292    1.2908 C   0  0  0  0  0  0  0  0  0  0  0  0
   -2.6000    2.4490    1.9252 C   0  0  0  0  0  0  0  0  0  0  0  0
   -3.4497    1.9485    2.9127 C   0  0  0  0  0  0  0  0  0  0  0  0
   -3.5212    0.5777    3.1786 C   0  0  0  0  0  0  0  0  0  0  0  0
   -2.7384   -0.3447    2.4712 C   0  0  0  0  0  0  0  0  0  0  0  0
   -1.7921    0.1453    1.5577 C   0  0  0  0  0  0  0  0  0  0  0  0
   -0.9049   -0.3695    0.5885 C   0  0  0  0  0  0  0  0  0  0  0  0
   -0.6903   -1.4768   -0.2458 C   0  0  0  0  0  0  0  0  0  0  0  0
   -0.0293   -2.6233    0.4195 C   0  0  0  0  0  0  0  0  0  0  0  0
    1.1605   -2.6290    1.0507 C   0  0  0  0  0  0  0  0  0  0  0  0
    2.1302   -1.5657    1.2964 C   0  0  0  0  0  0  0  0  0  0  0  0
    2.2269   -0.3224    0.7838 C   0  0  0  0  0  0  0  0  0  0  0  0
    1.2795    0.2869   -0.1791 C   0  0  0  0  0  0  0  0  0  0  0  0
    1.1004   -0.4253   -1.3752 C   0  0  0  0  0  0  0  0  0  0  0  0
    2.0571   -0.3988   -2.5376 C   0  0  0  0  0  0  0  0  0  0  0  0
    3.5361   -0.5609   -2.1939 C   0  0  0  0  0  0  0  0  0  0  0  0
    4.0733    0.6511   -1.6726 O   0  0  0  0  0  0  0  0  0  0  0  0
   -0.1662   -0.9872   -1.4833 C   0  0  0  0  0  0  0  0  0  0  0  0
    0.0555    0.6752    0.4373 C   0  0  0  0  0  0  0  0  0  0  0  0
    0.1294    1.4716   -2.1143 H   0  0  0  0  0  0  0  0  0  0  0  0
   -2.6085    3.4971    1.6415 H   0  0  0  0  0  0  0  0  0  0  0  0
   -4.1014    2.6349    3.4473 H   0  0  0  0  0  0  0  0  0  0  0  0
   -4.2247    0.2183    3.9264 H   0  0  0  0  0  0  0  0  0  0  0  0
   -2.8427   -1.4101    2.6578 H   0  0  0  0  0  0  0  0  0  0  0  0
   -0.5901   -3.5544    0.3335 H   0  0  0  0  0  0  0  0  0  0  0  0
    1.4766   -3.5868    1.4677 H   0  0  0  0  0  0  0  0  0  0  0  0
    2.9140   -1.8547    1.9999 H   0  0  0  0  0  0  0  0  0  0  0  0
    3.0561    0.3152    1.0794 H   0  0  0  0  0  0  0  0  0  0  0  0
    1.7793   -1.2096   -3.2196 H   0  0  0  0  0  0  0  0  0  0  0  0
    1.9202    0.5483   -3.0731 H   0  0  0  0  0  0  0  0  0  0  0  0
    3.7012   -1.3642   -1.4695 H   0  0  0  0  0  0  0  0  0  0  0  0
    4.1036   -0.8052   -3.0974 H   0  0  0  0  0  0  0  0  0  0  0  0
    4.1421    1.2894   -2.4040 H   0  0  0  0  0  0  0  0  0  0  0  0
  2  1  2  0  0  0  0
  3  2  1  0  0  0  0
  4  3  1  0  0  0  0
  5  4  2  0  0  0  0
  6  4  1  0  0  0  0
  7  6  1  0  0  0  0
  8  7  2  0  0  0  0
  9  8  1  0  0  0  0
 10  9  2  0  0  0  0
 11 10  1  0  0  0  0
 12 11  2  0  0  0  0
 12  7  1  0  0  0  0
 13 12  1  0  0  0  0
 14 13  1  0  0  0  0
 15 14  1  0  0  0  0
 16 15  2  0  0  0  0
 17 16  1  0  0  0  0
 18 17  2  0  0  0  0
 19 18  1  0  0  0  0
 20 19  2  0  0  0  0
 21 20  1  0  0  0  0
 22 21  1  0  0  0  0
 23 22  1  0  0  0  0
 24 20  1  0  0  0  0
 24  2  1  0  0  0  0
 24 14  2  0  0  0  0
 25 19  1  0  0  0  0
 25 13  2  0  0  0  0
 25  6  1  0  0  0  0
  3 26  1  0  0  0  0
  8 27  1  0  0  0  0
  9 28  1  0  0  0  0
 10 29  1  0  0  0  0
 11 30  1  0  0  0  0
 15 31  1  0  0  0  0
 16 32  1  0  0  0  0
 17 33  1  0  0  0  0
 18 34  1  0  0  0  0
 21 35  1  0  0  0  0
 21 36  1  0  0  0  0
 22 37  1  0  0  0  0
 22 38  1  0  0  0  0
 23 39  1  0  0  0  0
M  END
>  <energy>
258.83005604116408

$$$$
