CC1(N)N=C2C(=O)C(=C(NCC(N)O)C(=O)N2C(=N)NN)C(=O)N1
                    3D

 41 42  0  0  0  0  0  0  0  0999 V2000
    3.8804   -1.6372   -0.7660 C   0  0  0  0  0  0  0  0  0  0  0  0
    2.9138   -0.9935    0.2332 C   0  0  0  0  0  0  0  0  0  0  0  0
    3.6216   -0.8168    1.4736 N   0  0  0  0  0  0  0  0  0  0  0  0
    2.4763    0.3560   -0.1221 N   0  0  0  0  0  0  0  0  0  0  0  0
    1.5957    0.4356   -1.0646 C   0  0  0  0  0  0  0  0  0  0  0  0
    1.1961   -0.7501   -1.8732 C   0  0  0  0  0  0  0  0  0  0  0  0
    1.6239   -1.0505   -2.9594 O   0  0  0  0  0  0  0  0  0  0  0  0
    0.1725   -1.3629   -1.0740 C   0  0  0  0  0  0  0  0  0  0  0  0
   -0.8603   -0.5040   -0.8855 C   0  0  0  0  0  0  0  0  0  0  0  0
   -1.9805   -0.7143   -0.0771 N   0  0  0  0  0  0  0  0  0  0  0  0
   -3.3344   -0.2555   -0.4841 C   0  0  0  0  0  0  0  0  0  0  0  0
   -4.4285   -0.5877    0.5764 C   0  0  0  0  0  0  0  0  0  0  0  0
   -4.2220   -1.8436    1.2703 N   0  0  0  0  0  0  0  0  0  0  0  0
   -4.4557    0.4145    1.5692 O   0  0  0  0  0  0  0  0  0  0  0  0
   -0.6170    0.9450   -1.4708 C   0  0  0  0  0  0  0  0  0  0  0  0
   -1.4817    1.5097   -2.1296 O   0  0  0  0  0  0  0  0  0  0  0  0
    0.6835    1.4372   -1.2643 N   0  0  0  0  0  0  0  0  0  0  0  0
    0.7796    2.6030   -0.5454 C   0  0  0  0  0  0  0  0  0  0  0  0
    0.9209    3.7206   -1.1899 N   0  0  0  0  0  0  0  0  0  0  0  0
    0.7437    2.5507    0.8392 N   0  0  0  0  0  0  0  0  0  0  0  0
    1.0418    3.7499    1.5281 N   0  0  0  0  0  0  0  0  0  0  0  0
    0.6242   -2.2103    0.0471 C   0  0  0  0  0  0  0  0  0  0  0  0
   -0.0767   -3.1238    0.4737 O   0  0  0  0  0  0  0  0  0  0  0  0
    1.8212   -1.8626    0.6436 N   0  0  0  0  0  0  0  0  0  0  0  0
    4.6220   -0.9189   -1.1361 H   0  0  0  0  0  0  0  0  0  0  0  0
    3.3776   -2.0614   -1.6371 H   0  0  0  0  0  0  0  0  0  0  0  0
    4.4195   -2.4782   -0.3089 H   0  0  0  0  0  0  0  0  0  0  0  0
    3.0374   -0.1944    2.0303 H   0  0  0  0  0  0  0  0  0  0  0  0
    4.4379   -0.2395    1.2618 H   0  0  0  0  0  0  0  0  0  0  0  0
   -2.0412   -1.6948    0.2326 H   0  0  0  0  0  0  0  0  0  0  0  0
   -3.3224    0.8245   -0.6496 H   0  0  0  0  0  0  0  0  0  0  0  0
   -3.5847   -0.7683   -1.4232 H   0  0  0  0  0  0  0  0  0  0  0  0
   -5.3985   -0.5927    0.0667 H   0  0  0  0  0  0  0  0  0  0  0  0
   -3.4326   -1.6851    1.8996 H   0  0  0  0  0  0  0  0  0  0  0  0
   -5.0121   -2.0007    1.8933 H   0  0  0  0  0  0  0  0  0  0  0  0
   -5.3722    0.4874    1.8797 H   0  0  0  0  0  0  0  0  0  0  0  0
    0.9475    3.5332   -2.2004 H   0  0  0  0  0  0  0  0  0  0  0  0
    1.0476    1.6846    1.2880 H   0  0  0  0  0  0  0  0  0  0  0  0
    0.1595    4.1626    1.8483 H   0  0  0  0  0  0  0  0  0  0  0  0
    1.3760    4.4300    0.8249 H   0  0  0  0  0  0  0  0  0  0  0  0
    2.1003   -2.4974    1.3818 H   0  0  0  0  0  0  0  0  0  0  0  0
  2  1  1  0  0  0  0
  3  2  1  0  0  0  0
  4  2  1  0  0  0  0
  5  4  2  0  0  0  0
  6  5  1  0  0  0  0
  7  6  2  0  0  0  0
  8  6  1  0  0  0  0
  9  8  2  0  0  0  0
 10  9  1  0  0  0  0
 11 10  1  0  0  0  0
 12 11  1  0  0  0  0
 13 12  1  0  0  0  0
 14 12  1  0  0  0  0
 15  9  1  0  0  0  0
 16 15  2  0  0  0  0
 17 15  1  0  0  0  0
 17  5  1  0  0  0  0
 18 17  1  0  0  0  0
 19 18  2  0  0  0  0
 20 18  1  0  0  0  0
 21 20  1  0  0  0  0
 22  8  1  0  0  0  0
 23 22  2  0  0  0  0
 24 22  1  0  0  0  0
 24  2  1  0  0  0  0
  1 25  1  0  0  0  0
  1 26  1  0  0  0  0
  1 27  1  0  0  0  0
  3 28  1  0  0  0  0
  3 29  1  0  0  0  0
 10 30  1  0  0  0  0
 11 31  1  0  0  0  0
 11 32  1  0  0  0  0
 12 33  1  0  0  0  0
 13 34  1  0  0  0  0
 13 35  1  0  0  0  0
 14 36  1  0  0  0  0
 19 37  1  0  0  0  0
 20 38  1  0  0  0  0
 21 39  1  0  0  0  0
 21 40  1  0  0  0  0
 24 41  1  0  0  0  0
M  END
>  <energy>
-53.430747802177365

$$$$
