CC1CCC23OOC4CCCCC5CC(O2)C1C(C(C)CC3(C)O)C4(O)C5OC1OC(CO)C(O)C(O)C1O
                    3D

 85 90  0  0  0  0  0  0  0  0999 V2000
    2.3142   -2.7491    2.3015 C   0  0  0  0  0  0  0  0  0  0  0  0
    1.1323   -2.8205    1.3048 C   0  0  0  0  0  0  0  0  0  0  0  0
   -0.0140   -3.6885    2.0206 C   0  0  0  0  0  0  0  0  0  0  0  0
   -1.5196   -3.5924    1.5546 C   0  0  0  0  0  0  0  0  0  0  0  0
   -1.6871   -2.7333    0.2905 C   0  0  0  0  0  0  0  0  0  0  0  0
   -3.0151   -2.4292   -0.1567 O   0  0  0  0  0  0  0  0  0  0  0  0
   -2.8683   -1.8191   -1.5038 O   0  0  0  0  0  0  0  0  0  0  0  0
   -2.2658   -0.4989   -1.6101 C   0  0  0  0  0  0  0  0  0  0  0  0
   -3.3315    0.5948   -1.8834 C   0  0  0  0  0  0  0  0  0  0  0  0
   -4.0476    1.3032   -0.7430 C   0  0  0  0  0  0  0  0  0  0  0  0
   -3.8584    0.7371    0.6490 C   0  0  0  0  0  0  0  0  0  0  0  0
   -2.8080    1.4691    1.4651 C   0  0  0  0  0  0  0  0  0  0  0  0
   -1.3045    1.4050    1.1259 C   0  0  0  0  0  0  0  0  0  0  0  0
   -0.5165    0.4599    2.0185 C   0  0  0  0  0  0  0  0  0  0  0  0
   -0.4567   -1.0012    1.6056 C   0  0  0  0  0  0  0  0  0  0  0  0
   -1.4627   -1.3804    0.7213 O   0  0  0  0  0  0  0  0  0  0  0  0
    0.7632   -1.3556    0.8262 C   0  0  0  0  0  0  0  0  0  0  0  0
    0.5220   -0.9488   -0.7493 C   0  0  0  0  0  0  0  0  0  0  0  0
    0.8526   -2.0742   -1.7642 C   0  0  0  0  0  0  0  0  0  0  0  0
    1.5108   -1.5744   -3.0670 C   0  0  0  0  0  0  0  0  0  0  0  0
   -0.3382   -2.9517   -2.1284 C   0  0  0  0  0  0  0  0  0  0  0  0
   -1.0100   -3.6494   -0.9373 C   0  0  0  0  0  0  0  0  0  0  0  0
   -2.0879   -4.6206   -1.5101 C   0  0  0  0  0  0  0  0  0  0  0  0
   -0.0259   -4.6053   -0.4540 O   0  0  0  0  0  0  0  0  0  0  0  0
   -0.7607    0.0417   -1.1764 C   0  0  0  0  0  0  0  0  0  0  0  0
   -0.2405    0.5550   -2.4889 O   0  0  0  0  0  0  0  0  0  0  0  0
   -0.8345    1.3842   -0.3376 C   0  0  0  0  0  0  0  0  0  0  0  0
    0.5204    1.9053   -0.3870 O   0  0  0  0  0  0  0  0  0  0  0  0
    0.6283    3.3045   -0.1898 C   0  0  0  0  0  0  0  0  0  0  0  0
    1.1919    3.5999    1.0916 O   0  0  0  0  0  0  0  0  0  0  0  0
    2.4905    2.9938    1.2783 C   0  0  0  0  0  0  0  0  0  0  0  0
    2.9318    3.2397    2.7255 C   0  0  0  0  0  0  0  0  0  0  0  0
    2.1251    2.4607    3.6144 O   0  0  0  0  0  0  0  0  0  0  0  0
    3.4953    3.5584    0.2702 C   0  0  0  0  0  0  0  0  0  0  0  0
    3.7979    4.9407    0.5392 O   0  0  0  0  0  0  0  0  0  0  0  0
    2.9548    3.4422   -1.1576 C   0  0  0  0  0  0  0  0  0  0  0  0
    3.8031    4.2244   -2.0298 O   0  0  0  0  0  0  0  0  0  0  0  0
    1.5023    3.9218   -1.2833 C   0  0  0  0  0  0  0  0  0  0  0  0
    1.4622    5.3568   -1.1566 O   0  0  0  0  0  0  0  0  0  0  0  0
    3.1802   -2.2504    1.8495 H   0  0  0  0  0  0  0  0  0  0  0  0
    2.6343   -3.7586    2.5899 H   0  0  0  0  0  0  0  0  0  0  0  0
    2.0407   -2.2016    3.2109 H   0  0  0  0  0  0  0  0  0  0  0  0
    1.5523   -3.3891    0.4817 H   0  0  0  0  0  0  0  0  0  0  0  0
    0.0011   -3.4805    3.0993 H   0  0  0  0  0  0  0  0  0  0  0  0
    0.2936   -4.7432    1.9739 H   0  0  0  0  0  0  0  0  0  0  0  0
   -1.9242   -4.6032    1.4140 H   0  0  0  0  0  0  0  0  0  0  0  0
   -2.1156   -3.1721    2.3752 H   0  0  0  0  0  0  0  0  0  0  0  0
   -2.0205   -0.6461   -2.6748 H   0  0  0  0  0  0  0  0  0  0  0  0
   -2.8848    1.3753   -2.5176 H   0  0  0  0  0  0  0  0  0  0  0  0
   -4.1080    0.1468   -2.5178 H   0  0  0  0  0  0  0  0  0  0  0  0
   -5.1204    1.2912   -0.9765 H   0  0  0  0  0  0  0  0  0  0  0  0
   -3.7848    2.3681   -0.7574 H   0  0  0  0  0  0  0  0  0  0  0  0
   -3.7143   -0.3386    0.6599 H   0  0  0  0  0  0  0  0  0  0  0  0
   -4.8088    0.8918    1.1798 H   0  0  0  0  0  0  0  0  0  0  0  0
   -3.0890    2.5322    1.4475 H   0  0  0  0  0  0  0  0  0  0  0  0
   -2.9449    1.1785    2.5138 H   0  0  0  0  0  0  0  0  0  0  0  0
   -0.9812    2.3813    1.5198 H   0  0  0  0  0  0  0  0  0  0  0  0
   -0.9394    0.5119    3.0311 H   0  0  0  0  0  0  0  0  0  0  0  0
    0.5021    0.8410    2.1539 H   0  0  0  0  0  0  0  0  0  0  0  0
   -0.5440   -1.5098    2.5673 H   0  0  0  0  0  0  0  0  0  0  0  0
    1.6021   -0.7209    1.1390 H   0  0  0  0  0  0  0  0  0  0  0  0
    1.3829   -0.2751   -0.8946 H   0  0  0  0  0  0  0  0  0  0  0  0
    1.6349   -2.7007   -1.3303 H   0  0  0  0  0  0  0  0  0  0  0  0
    0.7986   -1.1054   -3.7507 H   0  0  0  0  0  0  0  0  0  0  0  0
    2.3264   -0.8737   -2.8544 H   0  0  0  0  0  0  0  0  0  0  0  0
    1.9492   -2.4245   -3.6060 H   0  0  0  0  0  0  0  0  0  0  0  0
   -1.0467   -2.4225   -2.7628 H   0  0  0  0  0  0  0  0  0  0  0  0
    0.0482   -3.7301   -2.8052 H   0  0  0  0  0  0  0  0  0  0  0  0
   -1.6220   -5.4471   -2.0619 H   0  0  0  0  0  0  0  0  0  0  0  0
   -2.7945   -4.1357   -2.1899 H   0  0  0  0  0  0  0  0  0  0  0  0
   -2.6600   -5.0941   -0.7043 H   0  0  0  0  0  0  0  0  0  0  0  0
    0.5722   -4.8445   -1.1783 H   0  0  0  0  0  0  0  0  0  0  0  0
   -0.7248    1.3597   -2.7269 H   0  0  0  0  0  0  0  0  0  0  0  0
   -1.4388    2.1010   -0.9028 H   0  0  0  0  0  0  0  0  0  0  0  0
   -0.3483    3.7970   -0.2212 H   0  0  0  0  0  0  0  0  0  0  0  0
    2.3893    1.9126    1.1317 H   0  0  0  0  0  0  0  0  0  0  0  0
    3.9705    2.9257    2.8710 H   0  0  0  0  0  0  0  0  0  0  0  0
    2.8187    4.2928    3.0028 H   0  0  0  0  0  0  0  0  0  0  0  0
    2.4331    2.6575    4.5141 H   0  0  0  0  0  0  0  0  0  0  0  0
    4.4452    3.0225    0.3479 H   0  0  0  0  0  0  0  0  0  0  0  0
    4.3853    5.2057   -0.1973 H   0  0  0  0  0  0  0  0  0  0  0  0
    3.0183    2.3960   -1.4721 H   0  0  0  0  0  0  0  0  0  0  0  0
    3.3288    5.0656   -2.1709 H   0  0  0  0  0  0  0  0  0  0  0  0
    1.1268    3.6657   -2.2813 H   0  0  0  0  0  0  0  0  0  0  0  0
    1.6352    5.5424   -0.2068 H   0  0  0  0  0  0  0  0  0  0  0  0
  2  1  1  0  0  0  0
  3  2  1  0  0  0  0
  4  3  1  0  0  0  0
  5  4  1  0  0  0  0
  6  5  1  0  0  0  0
  7  6  1  0  0  0  0
  8  7  1  0  0  0  0
  9  8  1  0  0  0  0
 10  9  1  0  0  0  0
 11 10  1  0  0  0  0
 12 11  1  0  0  0  0
 13 12  1  0  0  0  0
 14 13  1  0  0  0  0
 15 14  1  0  0  0  0
 16 15  1  0  0  0  0
 16  5  1  0  0  0  0
 17 15  1  0  0  0  0
 17  2  1  0  0  0  0
 18 17  1  0  0  0  0
 19 18  1  0  0  0  0
 20 19  1  0  0  0  0
 21 19  1  0  0  0  0
 22 21  1  0  0  0  0
 22  5  1  0  0  0  0
 23 22  1  0  0  0  0
 24 22  1  0  0  0  0
 25 18  1  0  0  0  0
 25  8  1  0  0  0  0
 26 25  1  0  0  0  0
 27 25  1  0  0  0  0
 27 13  1  0  0  0  0
 28 27  1  0  0  0  0
 29 28  1  0  0  0  0
 30 29  1  0  0  0  0
 31 30  1  0  0  0  0
 32 31  1  0  0  0  0
 33 32  1  0  0  0  0
 34 31  1  0  0  0  0
 35 34  1  0  0  0  0
 36 34  1  0  0  0  0
 37 36  1  0  0  0  0
 38 36  1  0  0  0  0
 38 29  1  0  0  0  0
 39 38  1  0  0  0  0
  1 40  1  0  0  0  0
  1 41  1  0  0  0  0
  1 42  1  0  0  0  0
  2 43  1  0  0  0  0
  3 44  1  0  0  0  0
  3 45  1  0  0  0  0
  4 46  1  0  0  0  0
  4 47  1  0  0  0  0
  8 48  1  0  0  0  0
  9 49  1  0  0  0  0
  9 50  1  0  0  0  0
 10 51  1  0  0  0  0
 10 52  1  0  0  0  0
 11 53  1  0  0  0  0
 11 54  1  0  0  0  0
 12 55  1  0  0  0  0
 12 56  1  0  0  0  0
 13 57  1  0  0  0  0
 14 58  1  0  0  0  0
 14 59  1  0  0  0  0
 15 60  1  0  0  0  0
 17 61  1  0  0  0  0
 18 62  1  0  0  0  0
 19 63  1  0  0  0  0
 20 64  1  0  0  0  0
 20 65  1  0  0  0  0
 20 66  1  0  0  0  0
 21 67  1  0  0  0  0
 21 68  1  0  0  0  0
 23 69  1  0  0  0  0
 23 70  1  0  0  0  0
 23 71  1  0  0  0  0
 24 72  1  0  0  0  0
 26 73  1  0  0  0  0
 27 74  1  0  0  0  0
 29 75  1  0  0  0  0
 31 76  1  0  0  0  0
 32 77  1  0  0  0  0
 32 78  1  0  0  0  0
 33 79  1  0  0  0  0
 34 80  1  0  0  0  0
 35 81  1  0  0  0  0
 36 82  1  0  0  0  0
 37 83  1  0  0  0  0
 38 84  1  0  0  0  0
 39 85  1  0  0  0  0
M  END
>  <energy>
442.41075454151274

$$$$
