CC1CCC2C(OC(=CC(O)C(C)(C)O)CC3CCCCC3)C3C4(C)CCC1C23OO4
                    3D

 73 77  0  0  0  0  0  0  0  0999 V2000
    2.1810    4.2293    0.5581 C   0  0  0  0  0  0  0  0  0  0  0  0
    2.1606    2.8024   -0.0158 C   0  0  0  0  0  0  0  0  0  0  0  0
    2.9107    2.8238   -1.3538 C   0  0  0  0  0  0  0  0  0  0  0  0
    2.7991    1.4987   -2.0774 C   0  0  0  0  0  0  0  0  0  0  0  0
    3.1166    0.3342   -1.1520 C   0  0  0  0  0  0  0  0  0  0  0  0
    1.8408   -0.5199   -0.7910 C   0  0  0  0  0  0  0  0  0  0  0  0
    0.5737    0.1252   -0.5878 O   0  0  0  0  0  0  0  0  0  0  0  0
   -0.5450   -0.6490   -0.8912 C   0  0  0  0  0  0  0  0  0  0  0  0
   -0.5517   -1.9988   -0.8497 C   0  0  0  0  0  0  0  0  0  0  0  0
   -1.6521   -2.9215   -1.2978 C   0  0  0  0  0  0  0  0  0  0  0  0
   -1.6580   -2.9336   -2.7361 O   0  0  0  0  0  0  0  0  0  0  0  0
   -1.5375   -4.4122   -0.8272 C   0  0  0  0  0  0  0  0  0  0  0  0
   -0.2405   -5.1040   -1.2841 C   0  0  0  0  0  0  0  0  0  0  0  0
   -1.7101   -4.5502    0.6864 C   0  0  0  0  0  0  0  0  0  0  0  0
   -2.6202   -5.1370   -1.4408 O   0  0  0  0  0  0  0  0  0  0  0  0
   -1.7297    0.1970   -1.3205 C   0  0  0  0  0  0  0  0  0  0  0  0
   -2.4752    0.8042   -0.1029 C   0  0  0  0  0  0  0  0  0  0  0  0
   -1.9549    2.2218    0.2249 C   0  0  0  0  0  0  0  0  0  0  0  0
   -2.9927    3.0405    0.9846 C   0  0  0  0  0  0  0  0  0  0  0  0
   -4.2589    3.2535    0.1515 C   0  0  0  0  0  0  0  0  0  0  0  0
   -4.5482    2.1082   -0.8199 C   0  0  0  0  0  0  0  0  0  0  0  0
   -4.0049    0.7829   -0.3024 C   0  0  0  0  0  0  0  0  0  0  0  0
    2.5950   -0.9057    0.4842 C   0  0  0  0  0  0  0  0  0  0  0  0
    2.6066   -0.8678    1.9919 C   0  0  0  0  0  0  0  0  0  0  0  0
    2.3342   -2.2484    2.5777 C   0  0  0  0  0  0  0  0  0  0  0  0
    1.6081    0.1591    2.5331 C   0  0  0  0  0  0  0  0  0  0  0  0
    2.0404    1.6012    2.2778 C   0  0  0  0  0  0  0  0  0  0  0  0
    2.8269    1.8208    0.9738 C   0  0  0  0  0  0  0  0  0  0  0  0
    3.3153    0.4807    0.3768 C   0  0  0  0  0  0  0  0  0  0  0  0
    4.5310    0.1598    1.0862 O   0  0  0  0  0  0  0  0  0  0  0  0
    3.9754   -0.4876    2.3274 O   0  0  0  0  0  0  0  0  0  0  0  0
    3.2143    4.5714    0.7050 H   0  0  0  0  0  0  0  0  0  0  0  0
    1.6696    4.2952    1.5236 H   0  0  0  0  0  0  0  0  0  0  0  0
    1.6911    4.9339   -0.1237 H   0  0  0  0  0  0  0  0  0  0  0  0
    1.1196    2.5219   -0.1858 H   0  0  0  0  0  0  0  0  0  0  0  0
    2.5051    3.6102   -2.0037 H   0  0  0  0  0  0  0  0  0  0  0  0
    3.9687    3.0604   -1.1812 H   0  0  0  0  0  0  0  0  0  0  0  0
    3.4856    1.4939   -2.9331 H   0  0  0  0  0  0  0  0  0  0  0  0
    1.7961    1.3942   -2.5115 H   0  0  0  0  0  0  0  0  0  0  0  0
    3.9059   -0.2819   -1.6076 H   0  0  0  0  0  0  0  0  0  0  0  0
    1.7767   -1.3186   -1.5424 H   0  0  0  0  0  0  0  0  0  0  0  0
    0.3263   -2.5126   -0.4743 H   0  0  0  0  0  0  0  0  0  0  0  0
   -2.6254   -2.5297   -0.9821 H   0  0  0  0  0  0  0  0  0  0  0  0
   -1.4594   -2.0306   -3.0464 H   0  0  0  0  0  0  0  0  0  0  0  0
   -0.0915   -5.0126   -2.3674 H   0  0  0  0  0  0  0  0  0  0  0  0
    0.6435   -4.7047   -0.7758 H   0  0  0  0  0  0  0  0  0  0  0  0
   -0.2868   -6.1800   -1.0763 H   0  0  0  0  0  0  0  0  0  0  0  0
   -2.6588   -4.1104    1.0152 H   0  0  0  0  0  0  0  0  0  0  0  0
   -1.7506   -5.6088    0.9748 H   0  0  0  0  0  0  0  0  0  0  0  0
   -0.8938   -4.0732    1.2361 H   0  0  0  0  0  0  0  0  0  0  0  0
   -2.6164   -4.8503   -2.3743 H   0  0  0  0  0  0  0  0  0  0  0  0
   -2.4139   -0.4036   -1.9281 H   0  0  0  0  0  0  0  0  0  0  0  0
   -1.3676    0.9878   -1.9944 H   0  0  0  0  0  0  0  0  0  0  0  0
   -2.2820    0.1690    0.7738 H   0  0  0  0  0  0  0  0  0  0  0  0
   -1.6962    2.7607   -0.6958 H   0  0  0  0  0  0  0  0  0  0  0  0
   -1.0365    2.1467    0.8189 H   0  0  0  0  0  0  0  0  0  0  0  0
   -2.5767    4.0126    1.2737 H   0  0  0  0  0  0  0  0  0  0  0  0
   -3.2513    2.5175    1.9151 H   0  0  0  0  0  0  0  0  0  0  0  0
   -4.1775    4.1867   -0.4187 H   0  0  0  0  0  0  0  0  0  0  0  0
   -5.1081    3.3857    0.8313 H   0  0  0  0  0  0  0  0  0  0  0  0
   -4.0998    2.3303   -1.7966 H   0  0  0  0  0  0  0  0  0  0  0  0
   -5.6292    2.0335   -0.9853 H   0  0  0  0  0  0  0  0  0  0  0  0
   -4.3130   -0.0375   -0.9580 H   0  0  0  0  0  0  0  0  0  0  0  0
   -4.4805    0.5735    0.6654 H   0  0  0  0  0  0  0  0  0  0  0  0
    3.2330   -1.7638    0.2052 H   0  0  0  0  0  0  0  0  0  0  0  0
    2.5475   -2.2639    3.6531 H   0  0  0  0  0  0  0  0  0  0  0  0
    1.2986   -2.5591    2.4162 H   0  0  0  0  0  0  0  0  0  0  0  0
    2.9849   -3.0047    2.1270 H   0  0  0  0  0  0  0  0  0  0  0  0
    0.6166   -0.0090    2.0955 H   0  0  0  0  0  0  0  0  0  0  0  0
    1.4875    0.0433    3.6175 H   0  0  0  0  0  0  0  0  0  0  0  0
    2.6955    1.9011    3.1086 H   0  0  0  0  0  0  0  0  0  0  0  0
    1.1701    2.2628    2.3476 H   0  0  0  0  0  0  0  0  0  0  0  0
    3.7426    2.3552    1.2750 H   0  0  0  0  0  0  0  0  0  0  0  0
  2  1  1  0  0  0  0
  3  2  1  0  0  0  0
  4  3  1  0  0  0  0
  5  4  1  0  0  0  0
  6  5  1  0  0  0  0
  7  6  1  0  0  0  0
  8  7  1  0  0  0  0
  9  8  2  0  0  0  0
 10  9  1  0  0  0  0
 11 10  1  0  0  0  0
 12 10  1  0  0  0  0
 13 12  1  0  0  0  0
 14 12  1  0  0  0  0
 15 12  1  0  0  0  0
 16  8  1  0  0  0  0
 17 16  1  0  0  0  0
 18 17  1  0  0  0  0
 19 18  1  0  0  0  0
 20 19  1  0  0  0  0
 21 20  1  0  0  0  0
 22 21  1  0  0  0  0
 22 17  1  0  0  0  0
 23  6  1  0  0  0  0
 24 23  1  0  0  0  0
 25 24  1  0  0  0  0
 26 24  1  0  0  0  0
 27 26  1  0  0  0  0
 28 27  1  0  0  0  0
 28  2  1  0  0  0  0
 29 28  1  0  0  0  0
 29  5  1  0  0  0  0
 29 23  1  0  0  0  0
 30 29  1  0  0  0  0
 31 30  1  0  0  0  0
 31 24  1  0  0  0  0
  1 32  1  0  0  0  0
  1 33  1  0  0  0  0
  1 34  1  0  0  0  0
  2 35  1  0  0  0  0
  3 36  1  0  0  0  0
  3 37  1  0  0  0  0
  4 38  1  0  0  0  0
  4 39  1  0  0  0  0
  5 40  1  0  0  0  0
  6 41  1  0  0  0  0
  9 42  1  0  0  0  0
 10 43  1  0  0  0  0
 11 44  1  0  0  0  0
 13 45  1  0  0  0  0
 13 46  1  0  0  0  0
 13 47  1  0  0  0  0
 14 48  1  0  0  0  0
 14 49  1  0  0  0  0
 14 50  1  0  0  0  0
 15 51  1  0  0  0  0
 16 52  1  0  0  0  0
 16 53  1  0  0  0  0
 17 54  1  0  0  0  0
 18 55  1  0  0  0  0
 18 56  1  0  0  0  0
 19 57  1  0  0  0  0
 19 58  1  0  0  0  0
 20 59  1  0  0  0  0
 20 60  1  0  0  0  0
 21 61  1  0  0  0  0
 21 62  1  0  0  0  0
 22 63  1  0  0  0  0
 22 64  1  0  0  0  0
 23 65  1  0  0  0  0
 25 66  1  0  0  0  0
 25 67  1  0  0  0  0
 25 68  1  0  0  0  0
 26 69  1  0  0  0  0
 26 70  1  0  0  0  0
 27 71  1  0  0  0  0
 27 72  1  0  0  0  0
 28 73  1  0  0  0  0
M  END
>  <energy>
124.2290569913476

$$$$
