CCC(=O)C1C2CC3(C)C2C2(C)CC(O)C13CC21CCC(COC(C)=O)C(=O)O1
                    3D

 61 65  0  0  0  0  0  0  0  0999 V2000
   -6.3038    0.7508    0.2228 C   0  0  0  0  0  0  0  0  0  0  0  0
   -5.3540    0.6040   -0.9491 C   0  0  0  0  0  0  0  0  0  0  0  0
   -4.1629    1.5586   -0.9303 C   0  0  0  0  0  0  0  0  0  0  0  0
   -4.1137    2.5089   -1.7240 O   0  0  0  0  0  0  0  0  0  0  0  0
   -3.0310    1.3664    0.0667 C   0  0  0  0  0  0  0  0  0  0  0  0
   -3.0553    0.0120    0.9330 C   0  0  0  0  0  0  0  0  0  0  0  0
   -2.7302    0.6727    2.2493 C   0  0  0  0  0  0  0  0  0  0  0  0
   -1.3590    0.8779    1.3943 C   0  0  0  0  0  0  0  0  0  0  0  0
   -0.6755    1.9363    2.2692 C   0  0  0  0  0  0  0  0  0  0  0  0
   -1.4368   -0.6210    1.2192 C   0  0  0  0  0  0  0  0  0  0  0  0
   -0.3761   -1.0475    0.1473 C   0  0  0  0  0  0  0  0  0  0  0  0
    0.2448   -2.3747    0.5847 C   0  0  0  0  0  0  0  0  0  0  0  0
   -1.1855   -1.2915   -1.1013 C   0  0  0  0  0  0  0  0  0  0  0  0
   -1.6134    0.0848   -1.5244 C   0  0  0  0  0  0  0  0  0  0  0  0
   -2.8143   -0.0655   -2.2727 O   0  0  0  0  0  0  0  0  0  0  0  0
   -1.5615    1.1878   -0.2831 C   0  0  0  0  0  0  0  0  0  0  0  0
   -0.0726    1.5732   -0.4488 C   0  0  0  0  0  0  0  0  0  0  0  0
    0.7183    0.1401   -0.1124 C   0  0  0  0  0  0  0  0  0  0  0  0
    1.6926   -0.2175   -1.2474 C   0  0  0  0  0  0  0  0  0  0  0  0
    3.0181    0.4972   -1.0842 C   0  0  0  0  0  0  0  0  0  0  0  0
    3.6796    0.1788    0.2495 C   0  0  0  0  0  0  0  0  0  0  0  0
    4.1832   -1.2618    0.4221 C   0  0  0  0  0  0  0  0  0  0  0  0
    5.6107   -1.3208    0.2593 O   0  0  0  0  0  0  0  0  0  0  0  0
    6.0672   -1.6022   -0.9868 C   0  0  0  0  0  0  0  0  0  0  0  0
    7.5621   -1.6698   -0.9754 C   0  0  0  0  0  0  0  0  0  0  0  0
    5.3758   -1.7861   -1.9749 O   0  0  0  0  0  0  0  0  0  0  0  0
    2.7366    0.4756    1.3792 C   0  0  0  0  0  0  0  0  0  0  0  0
    3.1368    0.8057    2.4856 O   0  0  0  0  0  0  0  0  0  0  0  0
    1.4237    0.2561    1.1624 O   0  0  0  0  0  0  0  0  0  0  0  0
   -7.1848    0.1206    0.0641 H   0  0  0  0  0  0  0  0  0  0  0  0
   -5.8444    0.4566    1.1691 H   0  0  0  0  0  0  0  0  0  0  0  0
   -6.6480    1.7806    0.3313 H   0  0  0  0  0  0  0  0  0  0  0  0
   -4.9933   -0.4280   -1.0262 H   0  0  0  0  0  0  0  0  0  0  0  0
   -5.9122    0.8017   -1.8739 H   0  0  0  0  0  0  0  0  0  0  0  0
   -3.1484    2.2766    0.6804 H   0  0  0  0  0  0  0  0  0  0  0  0
   -3.8817   -0.6936    0.9282 H   0  0  0  0  0  0  0  0  0  0  0  0
   -3.3240    1.5461    2.5480 H   0  0  0  0  0  0  0  0  0  0  0  0
   -2.6615    0.0516    3.1555 H   0  0  0  0  0  0  0  0  0  0  0  0
    0.4026    2.0339    2.1468 H   0  0  0  0  0  0  0  0  0  0  0  0
   -1.0964    2.9313    2.0583 H   0  0  0  0  0  0  0  0  0  0  0  0
   -0.8247    1.7323    3.3345 H   0  0  0  0  0  0  0  0  0  0  0  0
   -1.3071   -1.1882    2.1543 H   0  0  0  0  0  0  0  0  0  0  0  0
    0.8971   -2.2439    1.4522 H   0  0  0  0  0  0  0  0  0  0  0  0
    0.8193   -2.8284   -0.2282 H   0  0  0  0  0  0  0  0  0  0  0  0
   -0.5404   -3.0908    0.8614 H   0  0  0  0  0  0  0  0  0  0  0  0
   -0.6012   -1.7811   -1.8921 H   0  0  0  0  0  0  0  0  0  0  0  0
   -2.0580   -1.9371   -0.9222 H   0  0  0  0  0  0  0  0  0  0  0  0
   -0.9170    0.4141   -2.3118 H   0  0  0  0  0  0  0  0  0  0  0  0
   -2.8854    0.6975   -2.8748 H   0  0  0  0  0  0  0  0  0  0  0  0
    0.2867    2.3867    0.1870 H   0  0  0  0  0  0  0  0  0  0  0  0
    0.1512    1.9287   -1.4654 H   0  0  0  0  0  0  0  0  0  0  0  0
    1.2673    0.0401   -2.2200 H   0  0  0  0  0  0  0  0  0  0  0  0
    1.8753   -1.2922   -1.2853 H   0  0  0  0  0  0  0  0  0  0  0  0
    2.8412    1.5783   -1.1368 H   0  0  0  0  0  0  0  0  0  0  0  0
    3.6873    0.2436   -1.9113 H   0  0  0  0  0  0  0  0  0  0  0  0
    4.5217    0.8778    0.3556 H   0  0  0  0  0  0  0  0  0  0  0  0
    3.6834   -1.9744   -0.2416 H   0  0  0  0  0  0  0  0  0  0  0  0
    4.0057   -1.6269    1.4414 H   0  0  0  0  0  0  0  0  0  0  0  0
    7.8760   -2.7113   -1.0759 H   0  0  0  0  0  0  0  0  0  0  0  0
    7.9570   -1.0662   -1.7965 H   0  0  0  0  0  0  0  0  0  0  0  0
    7.9527   -1.2642   -0.0356 H   0  0  0  0  0  0  0  0  0  0  0  0
  2  1  1  0  0  0  0
  3  2  1  0  0  0  0
  4  3  2  0  0  0  0
  5  3  1  0  0  0  0
  6  5  1  0  0  0  0
  7  6  1  0  0  0  0
  8  7  1  0  0  0  0
  9  8  1  0  0  0  0
 10  8  1  0  0  0  0
 10  6  1  0  0  0  0
 11 10  1  0  0  0  0
 12 11  1  0  0  0  0
 13 11  1  0  0  0  0
 14 13  1  0  0  0  0
 15 14  1  0  0  0  0
 16 14  1  0  0  0  0
 16  5  1  0  0  0  0
 16  8  1  0  0  0  0
 17 16  1  0  0  0  0
 18 17  1  0  0  0  0
 18 11  1  0  0  0  0
 19 18  1  0  0  0  0
 20 19  1  0  0  0  0
 21 20  1  0  0  0  0
 22 21  1  0  0  0  0
 23 22  1  0  0  0  0
 24 23  1  0  0  0  0
 25 24  1  0  0  0  0
 26 24  2  0  0  0  0
 27 21  1  0  0  0  0
 28 27  2  0  0  0  0
 29 27  1  0  0  0  0
 29 18  1  0  0  0  0
  1 30  1  0  0  0  0
  1 31  1  0  0  0  0
  1 32  1  0  0  0  0
  2 33  1  0  0  0  0
  2 34  1  0  0  0  0
  5 35  1  0  0  0  0
  6 36  1  0  0  0  0
  7 37  1  0  0  0  0
  7 38  1  0  0  0  0
  9 39  1  0  0  0  0
  9 40  1  0  0  0  0
  9 41  1  0  0  0  0
 10 42  1  0  0  0  0
 12 43  1  0  0  0  0
 12 44  1  0  0  0  0
 12 45  1  0  0  0  0
 13 46  1  0  0  0  0
 13 47  1  0  0  0  0
 14 48  1  0  0  0  0
 15 49  1  0  0  0  0
 17 50  1  0  0  0  0
 17 51  1  0  0  0  0
 19 52  1  0  0  0  0
 19 53  1  0  0  0  0
 20 54  1  0  0  0  0
 20 55  1  0  0  0  0
 21 56  1  0  0  0  0
 22 57  1  0  0  0  0
 22 58  1  0  0  0  0
 25 59  1  0  0  0  0
 25 60  1  0  0  0  0
 25 61  1  0  0  0  0
M  END
>  <energy>
233.35835621489494

$$$$
