C=C1NCC23OC2C(CO)OC2CC(O)C1Cc1cc(OCCCCCCCNC(C)=N)cc2c13
                    3D

 74 78  0  0  0  0  0  0  0  0999 V2000
    2.7217    3.3966   -2.0311 C   0  0  0  0  0  0  0  0  0  0  0  0
    2.8129    2.2174   -1.3861 C   0  0  0  0  0  0  0  0  0  0  0  0
    3.8323    2.0540   -0.4611 N   0  0  0  0  0  0  0  0  0  0  0  0
    4.5725    0.8377   -0.1491 C   0  0  0  0  0  0  0  0  0  0  0  0
    3.7917   -0.0237    0.8088 C   0  0  0  0  0  0  0  0  0  0  0  0
    4.6607   -0.6054    1.8092 O   0  0  0  0  0  0  0  0  0  0  0  0
    3.8243    0.4704    2.2568 C   0  0  0  0  0  0  0  0  0  0  0  0
    2.8647    0.1246    3.3432 C   0  0  0  0  0  0  0  0  0  0  0  0
    3.0436   -1.2716    3.9636 C   0  0  0  0  0  0  0  0  0  0  0  0
    2.0802   -1.4653    5.0012 O   0  0  0  0  0  0  0  0  0  0  0  0
    1.4833    0.3934    3.0459 O   0  0  0  0  0  0  0  0  0  0  0  0
    0.9377    0.0071    1.7884 C   0  0  0  0  0  0  0  0  0  0  0  0
    0.8191    1.2601    0.8464 C   0  0  0  0  0  0  0  0  0  0  0  0
    0.5677    1.0079   -0.6756 C   0  0  0  0  0  0  0  0  0  0  0  0
   -0.4346    1.9605   -1.1079 O   0  0  0  0  0  0  0  0  0  0  0  0
    1.7999    1.0924   -1.6857 C   0  0  0  0  0  0  0  0  0  0  0  0
    2.4939   -0.2620   -2.0933 C   0  0  0  0  0  0  0  0  0  0  0  0
    2.4545   -1.3346   -1.0135 C   0  0  0  0  0  0  0  0  0  0  0  0
    1.6927   -2.4898   -1.3025 C   0  0  0  0  0  0  0  0  0  0  0  0
    0.8414   -3.0013   -0.3352 C   0  0  0  0  0  0  0  0  0  0  0  0
   -0.0089   -4.0115   -0.6898 O   0  0  0  0  0  0  0  0  0  0  0  0
   -1.3896   -3.6141   -0.6528 C   0  0  0  0  0  0  0  0  0  0  0  0
   -1.9591   -3.6334   -2.0728 C   0  0  0  0  0  0  0  0  0  0  0  0
   -3.2110   -2.7627   -2.2040 C   0  0  0  0  0  0  0  0  0  0  0  0
   -2.8430   -1.2819   -2.4112 C   0  0  0  0  0  0  0  0  0  0  0  0
   -3.8657   -0.3122   -1.8109 C   0  0  0  0  0  0  0  0  0  0  0  0
   -3.7197   -0.2123   -0.2855 C   0  0  0  0  0  0  0  0  0  0  0  0
   -4.7559    0.6995    0.3677 C   0  0  0  0  0  0  0  0  0  0  0  0
   -4.5698    2.0791    0.0042 N   0  0  0  0  0  0  0  0  0  0  0  0
   -3.7408    3.0020    0.5626 C   0  0  0  0  0  0  0  0  0  0  0  0
   -2.8876    2.6611    1.7619 C   0  0  0  0  0  0  0  0  0  0  0  0
   -3.7469    4.1926    0.0540 N   0  0  0  0  0  0  0  0  0  0  0  0
    0.7370   -2.3243    0.8751 C   0  0  0  0  0  0  0  0  0  0  0  0
    1.5550   -1.1995    1.0973 C   0  0  0  0  0  0  0  0  0  0  0  0
    2.6726   -0.9301    0.3084 C   0  0  0  0  0  0  0  0  0  0  0  0
    1.9695    3.6010   -2.7801 H   0  0  0  0  0  0  0  0  0  0  0  0
    3.4337    4.1965   -1.8495 H   0  0  0  0  0  0  0  0  0  0  0  0
    4.4182    2.8807   -0.3553 H   0  0  0  0  0  0  0  0  0  0  0  0
    4.9344    0.2980   -1.0308 H   0  0  0  0  0  0  0  0  0  0  0  0
    5.5000    1.1595    0.3502 H   0  0  0  0  0  0  0  0  0  0  0  0
    4.2868    1.4343    2.4402 H   0  0  0  0  0  0  0  0  0  0  0  0
    3.0794    0.8219    4.1635 H   0  0  0  0  0  0  0  0  0  0  0  0
    2.9110   -2.0728    3.2331 H   0  0  0  0  0  0  0  0  0  0  0  0
    4.0438   -1.3768    4.3982 H   0  0  0  0  0  0  0  0  0  0  0  0
    1.2737   -1.0074    4.6931 H   0  0  0  0  0  0  0  0  0  0  0  0
   -0.0999   -0.2619    2.0180 H   0  0  0  0  0  0  0  0  0  0  0  0
    1.6786    1.9216    0.9999 H   0  0  0  0  0  0  0  0  0  0  0  0
   -0.0151    1.8546    1.2484 H   0  0  0  0  0  0  0  0  0  0  0  0
    0.0633    0.0430   -0.8052 H   0  0  0  0  0  0  0  0  0  0  0  0
    0.0182    2.7749   -1.3891 H   0  0  0  0  0  0  0  0  0  0  0  0
    1.3256    1.3987   -2.6355 H   0  0  0  0  0  0  0  0  0  0  0  0
    3.5118   -0.1158   -2.4704 H   0  0  0  0  0  0  0  0  0  0  0  0
    1.9446   -0.6414   -2.9652 H   0  0  0  0  0  0  0  0  0  0  0  0
    1.6040   -2.8514   -2.3277 H   0  0  0  0  0  0  0  0  0  0  0  0
   -1.5370   -2.6262   -0.2017 H   0  0  0  0  0  0  0  0  0  0  0  0
   -1.9272   -4.3313   -0.0205 H   0  0  0  0  0  0  0  0  0  0  0  0
   -1.1976   -3.3056   -2.7902 H   0  0  0  0  0  0  0  0  0  0  0  0
   -2.2022   -4.6692   -2.3395 H   0  0  0  0  0  0  0  0  0  0  0  0
   -3.7834   -3.0929   -3.0807 H   0  0  0  0  0  0  0  0  0  0  0  0
   -3.8682   -2.9105   -1.3392 H   0  0  0  0  0  0  0  0  0  0  0  0
   -1.8451   -1.0606   -2.0116 H   0  0  0  0  0  0  0  0  0  0  0  0
   -2.7787   -1.1027   -3.4929 H   0  0  0  0  0  0  0  0  0  0  0  0
   -4.8791   -0.6343   -2.0770 H   0  0  0  0  0  0  0  0  0  0  0  0
   -3.7080    0.6765   -2.2594 H   0  0  0  0  0  0  0  0  0  0  0  0
   -2.7046    0.1264   -0.0430 H   0  0  0  0  0  0  0  0  0  0  0  0
   -3.8280   -1.2117    0.1526 H   0  0  0  0  0  0  0  0  0  0  0  0
   -5.7641    0.3836    0.0754 H   0  0  0  0  0  0  0  0  0  0  0  0
   -4.7047    0.5934    1.4559 H   0  0  0  0  0  0  0  0  0  0  0  0
   -5.0734    2.4264   -0.8058 H   0  0  0  0  0  0  0  0  0  0  0  0
   -3.5111    2.6423    2.6618 H   0  0  0  0  0  0  0  0  0  0  0  0
   -2.0902    3.3954    1.9035 H   0  0  0  0  0  0  0  0  0  0  0  0
   -2.4281    1.6769    1.6387 H   0  0  0  0  0  0  0  0  0  0  0  0
   -3.1022    4.8106    0.5573 H   0  0  0  0  0  0  0  0  0  0  0  0
   -0.0755   -2.5638    1.5534 H   0  0  0  0  0  0  0  0  0  0  0  0
  2  1  2  0  0  0  0
  3  2  1  0  0  0  0
  4  3  1  0  0  0  0
  5  4  1  0  0  0  0
  6  5  1  0  0  0  0
  7  6  1  0  0  0  0
  7  5  1  0  0  0  0
  8  7  1  0  0  0  0
  9  8  1  0  0  0  0
 10  9  1  0  0  0  0
 11  8  1  0  0  0  0
 12 11  1  0  0  0  0
 13 12  1  0  0  0  0
 14 13  1  0  0  0  0
 15 14  1  0  0  0  0
 16 14  1  0  0  0  0
 16  2  1  0  0  0  0
 17 16  1  0  0  0  0
 18 17  1  0  0  0  0
 19 18  2  0  0  0  0
 20 19  1  0  0  0  0
 21 20  1  0  0  0  0
 22 21  1  0  0  0  0
 23 22  1  0  0  0  0
 24 23  1  0  0  0  0
 25 24  1  0  0  0  0
 26 25  1  0  0  0  0
 27 26  1  0  0  0  0
 28 27  1  0  0  0  0
 29 28  1  0  0  0  0
 30 29  1  0  0  0  0
 31 30  1  0  0  0  0
 32 30  2  0  0  0  0
 33 20  2  0  0  0  0
 34 33  1  0  0  0  0
 34 12  1  0  0  0  0
 35 34  2  0  0  0  0
 35 18  1  0  0  0  0
 35  5  1  0  0  0  0
  1 36  1  0  0  0  0
  1 37  1  0  0  0  0
  3 38  1  0  0  0  0
  4 39  1  0  0  0  0
  4 40  1  0  0  0  0
  7 41  1  0  0  0  0
  8 42  1  0  0  0  0
  9 43  1  0  0  0  0
  9 44  1  0  0  0  0
 10 45  1  0  0  0  0
 12 46  1  0  0  0  0
 13 47  1  0  0  0  0
 13 48  1  0  0  0  0
 14 49  1  0  0  0  0
 15 50  1  0  0  0  0
 16 51  1  0  0  0  0
 17 52  1  0  0  0  0
 17 53  1  0  0  0  0
 19 54  1  0  0  0  0
 22 55  1  0  0  0  0
 22 56  1  0  0  0  0
 23 57  1  0  0  0  0
 23 58  1  0  0  0  0
 24 59  1  0  0  0  0
 24 60  1  0  0  0  0
 25 61  1  0  0  0  0
 25 62  1  0  0  0  0
 26 63  1  0  0  0  0
 26 64  1  0  0  0  0
 27 65  1  0  0  0  0
 27 66  1  0  0  0  0
 28 67  1  0  0  0  0
 28 68  1  0  0  0  0
 29 69  1  0  0  0  0
 31 70  1  0  0  0  0
 31 71  1  0  0  0  0
 31 72  1  0  0  0  0
 32 73  1  0  0  0  0
 33 74  1  0  0  0  0
M  END
>  <energy>
155.52295646639004

$$$$
