N#CCCn1c2c(=O)[nH]c(=O)[nH]c2[nH]c2nnc1[s+]2[O-]
                    3D

 27 29  0  0  0  0  0  0  0  0999 V2000
   -4.9674   -0.4761    0.0656 N   0  0  0  0  0  0  0  0  0  0  0  0
   -3.9224   -0.9665   -0.0473 C   0  0  0  0  0  0  0  0  0  0  0  0
   -2.5925   -1.5713   -0.2043 C   0  0  0  0  0  0  0  0  0  0  0  0
   -1.6627   -0.6482   -1.0032 C   0  0  0  0  0  0  0  0  0  0  0  0
   -0.7851    0.1223   -0.0935 N   0  0  0  0  0  0  0  0  0  0  0  0
    0.6300   -0.1876    0.0106 C   0  0  0  0  0  0  0  0  0  0  0  0
    1.0029   -1.6573   -0.0984 C   0  0  0  0  0  0  0  0  0  0  0  0
    0.1665   -2.5496    0.0338 O   0  0  0  0  0  0  0  0  0  0  0  0
    2.3068   -1.9680   -0.3153 N   0  0  0  0  0  0  0  0  0  0  0  0
    3.3183   -1.1397    0.0279 C   0  0  0  0  0  0  0  0  0  0  0  0
    4.4707   -1.5295    0.1421 O   0  0  0  0  0  0  0  0  0  0  0  0
    2.9689    0.1502    0.2678 N   0  0  0  0  0  0  0  0  0  0  0  0
    1.6937    0.6633    0.2510 C   0  0  0  0  0  0  0  0  0  0  0  0
    1.6452    2.0651    0.4873 N   0  0  0  0  0  0  0  0  0  0  0  0
    0.4376    2.7184    0.6336 C   0  0  0  0  0  0  0  0  0  0  0  0
   -0.1650    3.2619   -0.3907 N   0  0  0  0  0  0  0  0  0  0  0  0
   -1.2765    2.3710   -0.6824 N   0  0  0  0  0  0  0  0  0  0  0  0
   -1.2067    1.4146    0.2090 C   0  0  0  0  0  0  0  0  0  0  0  0
   -0.6991    2.0115    1.8689 S   0  3  0  0  0  0  0  0  0  0  0  0
   -1.6670    3.1090    2.2171 O   0  5  0  0  0  0  0  0  0  0  0  0
   -2.1784   -1.7892    0.7853 H   0  0  0  0  0  0  0  0  0  0  0  0
   -2.6944   -2.5330   -0.7233 H   0  0  0  0  0  0  0  0  0  0  0  0
   -1.0497   -1.2315   -1.7006 H   0  0  0  0  0  0  0  0  0  0  0  0
   -2.2360    0.0296   -1.6519 H   0  0  0  0  0  0  0  0  0  0  0  0
    2.5398   -2.9498   -0.3465 H   0  0  0  0  0  0  0  0  0  0  0  0
    3.7416    0.7600    0.5089 H   0  0  0  0  0  0  0  0  0  0  0  0
    2.1809    2.5203   -0.2516 H   0  0  0  0  0  0  0  0  0  0  0  0
  2  1  3  0  0  0  0
  3  2  1  0  0  0  0
  4  3  1  0  0  0  0
  5  4  1  0  0  0  0
  6  5  1  0  0  0  0
  7  6  1  0  0  0  0
  8  7  2  0  0  0  0
  9  7  1  0  0  0  0
 10  9  1  0  0  0  0
 11 10  2  0  0  0  0
 12 10  1  0  0  0  0
 13 12  1  0  0  0  0
 13  6  2  0  0  0  0
 14 13  1  0  0  0  0
 15 14  1  0  0  0  0
 16 15  2  0  0  0  0
 17 16  1  0  0  0  0
 18 17  2  0  0  0  0
 18  5  1  0  0  0  0
 19 18  1  0  0  0  0
 19 15  1  0  0  0  0
 20 19  1  0  0  0  0
  3 21  1  0  0  0  0
  3 22  1  0  0  0  0
  4 23  1  0  0  0  0
  4 24  1  0  0  0  0
  9 25  1  0  0  0  0
 12 26  1  0  0  0  0
 14 27  1  0  0  0  0
M  CHG  2  19   1  20  -1
M  END
>  <energy>
51.788415999648507

$$$$
