COC1C[N+]2(CC3C(Br)C(Br)C34C(=O)N3C(C)SC34)CCC1C2O
                    3D

 47 51  0  0  0  0  0  0  0  0999 V2000
    3.3674    2.4683    1.2853 C   0  0  0  0  0  0  0  0  0  0  0  0
    3.5567    1.0930    0.9715 O   0  0  0  0  0  0  0  0  0  0  0  0
    2.8864    0.6818   -0.2164 C   0  0  0  0  0  0  0  0  0  0  0  0
    1.3923    0.3797    0.0207 C   0  0  0  0  0  0  0  0  0  0  0  0
    1.2809   -1.1456   -0.2644 N   0  3  0  0  0  0  0  0  0  0  0  0
   -0.1012   -1.6661   -0.5662 C   0  0  0  0  0  0  0  0  0  0  0  0
   -1.1350   -1.2624    0.4816 C   0  0  0  0  0  0  0  0  0  0  0  0
   -2.1762   -2.3626    0.8723 C   0  0  0  0  0  0  0  0  0  0  0  0
   -2.5055   -2.4980    2.7890 Br  0  0  0  0  0  0  0  0  0  0  0  0
   -3.2540   -1.5886    0.0515 C   0  0  0  0  0  0  0  0  0  0  0  0
   -3.5410   -2.4310   -1.6938 Br  0  0  0  0  0  0  0  0  0  0  0  0
   -2.3408   -0.3739    0.1095 C   0  0  0  0  0  0  0  0  0  0  0  0
   -2.5762    0.8711    0.9515 C   0  0  0  0  0  0  0  0  0  0  0  0
   -2.8540    1.1088    2.0971 O   0  0  0  0  0  0  0  0  0  0  0  0
   -2.2391    1.6798   -0.1030 N   0  0  0  0  0  0  0  0  0  0  0  0
   -3.1889    2.5899   -0.7836 C   0  0  0  0  0  0  0  0  0  0  0  0
   -4.1988    3.2499    0.1295 C   0  0  0  0  0  0  0  0  0  0  0  0
   -3.8353    1.2037   -1.7369 S   0  0  0  0  0  0  0  0  0  0  0  0
   -2.2869    0.5636   -1.0895 C   0  0  0  0  0  0  0  0  0  0  0  0
    2.0123   -1.8965    0.8804 C   0  0  0  0  0  0  0  0  0  0  0  0
    3.4891   -1.6534    0.5592 C   0  0  0  0  0  0  0  0  0  0  0  0
    3.4303   -0.6990   -0.6456 C   0  0  0  0  0  0  0  0  0  0  0  0
    2.2572   -1.2931   -1.4093 C   0  0  0  0  0  0  0  0  0  0  0  0
    1.8809   -0.5632   -2.5436 O   0  0  0  0  0  0  0  0  0  0  0  0
    2.3078    2.6929    1.4338 H   0  0  0  0  0  0  0  0  0  0  0  0
    3.7772    3.1015    0.4934 H   0  0  0  0  0  0  0  0  0  0  0  0
    3.9004    2.6861    2.2160 H   0  0  0  0  0  0  0  0  0  0  0  0
    3.0259    1.4234   -1.0127 H   0  0  0  0  0  0  0  0  0  0  0  0
    0.7592    0.8930   -0.7079 H   0  0  0  0  0  0  0  0  0  0  0  0
    1.0512    0.5759    1.0409 H   0  0  0  0  0  0  0  0  0  0  0  0
   -0.3744   -1.3108   -1.5622 H   0  0  0  0  0  0  0  0  0  0  0  0
   -0.0117   -2.7570   -0.6366 H   0  0  0  0  0  0  0  0  0  0  0  0
   -0.6260   -0.8913    1.3815 H   0  0  0  0  0  0  0  0  0  0  0  0
   -1.9401   -3.3653    0.5002 H   0  0  0  0  0  0  0  0  0  0  0  0
   -4.2125   -1.4528    0.5625 H   0  0  0  0  0  0  0  0  0  0  0  0
   -2.6484    3.3307   -1.3835 H   0  0  0  0  0  0  0  0  0  0  0  0
   -4.8055    2.5343    0.6941 H   0  0  0  0  0  0  0  0  0  0  0  0
   -4.8820    3.8802   -0.4513 H   0  0  0  0  0  0  0  0  0  0  0  0
   -3.6934    3.9069    0.8449 H   0  0  0  0  0  0  0  0  0  0  0  0
   -1.4174    0.5661   -1.7504 H   0  0  0  0  0  0  0  0  0  0  0  0
    1.7546   -2.9587    0.8117 H   0  0  0  0  0  0  0  0  0  0  0  0
    1.6852   -1.4826    1.8389 H   0  0  0  0  0  0  0  0  0  0  0  0
    3.9718   -2.5970    0.2799 H   0  0  0  0  0  0  0  0  0  0  0  0
    4.0300   -1.2556    1.4214 H   0  0  0  0  0  0  0  0  0  0  0  0
    4.3742   -0.6273   -1.1919 H   0  0  0  0  0  0  0  0  0  0  0  0
    2.3657   -2.3589   -1.6493 H   0  0  0  0  0  0  0  0  0  0  0  0
    2.2875   -0.9899   -3.3200 H   0  0  0  0  0  0  0  0  0  0  0  0
  2  1  1  0  0  0  0
  3  2  1  0  0  0  0
  4  3  1  0  0  0  0
  5  4  1  0  0  0  0
  6  5  1  0  0  0  0
  7  6  1  0  0  0  0
  8  7  1  0  0  0  0
  9  8  1  0  0  0  0
 10  8  1  0  0  0  0
 11 10  1  0  0  0  0
 12 10  1  0  0  0  0
 12  7  1  0  0  0  0
 13 12  1  0  0  0  0
 14 13  2  0  0  0  0
 15 13  1  0  0  0  0
 16 15  1  0  0  0  0
 17 16  1  0  0  0  0
 18 16  1  0  0  0  0
 19 18  1  0  0  0  0
 19 15  1  0  0  0  0
 19 12  1  0  0  0  0
 20  5  1  0  0  0  0
 21 20  1  0  0  0  0
 22 21  1  0  0  0  0
 22  3  1  0  0  0  0
 23 22  1  0  0  0  0
 23  5  1  0  0  0  0
 24 23  1  0  0  0  0
  1 25  1  0  0  0  0
  1 26  1  0  0  0  0
  1 27  1  0  0  0  0
  3 28  1  0  0  0  0
  4 29  1  0  0  0  0
  4 30  1  0  0  0  0
  6 31  1  0  0  0  0
  6 32  1  0  0  0  0
  7 33  1  0  0  0  0
  8 34  1  0  0  0  0
 10 35  1  0  0  0  0
 16 36  1  0  0  0  0
 17 37  1  0  0  0  0
 17 38  1  0  0  0  0
 17 39  1  0  0  0  0
 19 40  1  0  0  0  0
 20 41  1  0  0  0  0
 20 42  1  0  0  0  0
 21 43  1  0  0  0  0
 21 44  1  0  0  0  0
 22 45  1  0  0  0  0
 23 46  1  0  0  0  0
 24 47  1  0  0  0  0
M  CHG  1   5   1
M  END
>  <energy>
-11.042265574698391

$$$$
