CC(NC1C2=CC1C1C3C(C2)C2CCC2C2(CC12)C3(F)F)S(C)(=O)=O
                    3D

 50 55  0  0  0  0  0  0  0  0999 V2000
    2.7126    0.2855   -1.4413 C   0  0  0  0  0  0  0  0  0  0  0  0
    2.7032    0.0568    0.0676 C   0  0  0  0  0  0  0  0  0  0  0  0
    1.3204   -0.3392    0.4773 N   0  0  0  0  0  0  0  0  0  0  0  0
    1.0150    0.2775    1.7598 C   0  0  0  0  0  0  0  0  0  0  0  0
    0.1634    1.5237    1.6115 C   0  0  0  0  0  0  0  0  0  0  0  0
   -0.3580    1.2870    2.8590 C   0  0  0  0  0  0  0  0  0  0  0  0
   -0.3290   -0.2313    2.4190 C   0  0  0  0  0  0  0  0  0  0  0  0
   -1.6633   -0.6267    1.7206 C   0  0  0  0  0  0  0  0  0  0  0  0
   -2.4875    0.5738    1.0573 C   0  0  0  0  0  0  0  0  0  0  0  0
   -1.7864    1.6198    0.0549 C   0  0  0  0  0  0  0  0  0  0  0  0
   -0.4378    2.2525    0.4374 C   0  0  0  0  0  0  0  0  0  0  0  0
   -1.8743    1.0932   -1.3974 C   0  0  0  0  0  0  0  0  0  0  0  0
   -1.1394    1.1019   -2.7695 C   0  0  0  0  0  0  0  0  0  0  0  0
   -1.9165   -0.2654   -3.0044 C   0  0  0  0  0  0  0  0  0  0  0  0
   -1.7022   -0.4757   -1.4972 C   0  0  0  0  0  0  0  0  0  0  0  0
   -2.5348   -1.2159   -0.4500 C   0  0  0  0  0  0  0  0  0  0  0  0
   -2.5316   -2.6367    0.0035 C   0  0  0  0  0  0  0  0  0  0  0  0
   -1.5445   -1.6935    0.6424 C   0  0  0  0  0  0  0  0  0  0  0  0
   -3.4894   -0.2775    0.2648 C   0  0  0  0  0  0  0  0  0  0  0  0
   -4.3058   -0.9584    1.1140 F   0  0  0  0  0  0  0  0  0  0  0  0
   -4.2944    0.4117   -0.5639 F   0  0  0  0  0  0  0  0  0  0  0  0
    3.9934   -1.1772    0.5331 S   0  0  0  0  0  0  0  0  0  0  0  0
    5.5402   -0.3448    0.2631 C   0  0  0  0  0  0  0  0  0  0  0  0
    3.8789   -1.4204    1.9589 O   0  0  0  0  0  0  0  0  0  0  0  0
    3.9180   -2.2933   -0.3897 O   0  0  0  0  0  0  0  0  0  0  0  0
    3.7046    0.5883   -1.7888 H   0  0  0  0  0  0  0  0  0  0  0  0
    2.0199    1.0856   -1.7200 H   0  0  0  0  0  0  0  0  0  0  0  0
    2.4339   -0.6161   -1.9959 H   0  0  0  0  0  0  0  0  0  0  0  0
    3.0008    0.9922    0.5570 H   0  0  0  0  0  0  0  0  0  0  0  0
    1.3500   -1.3601    0.5506 H   0  0  0  0  0  0  0  0  0  0  0  0
    1.8568    0.3218    2.4650 H   0  0  0  0  0  0  0  0  0  0  0  0
   -1.1536    1.7867    3.4226 H   0  0  0  0  0  0  0  0  0  0  0  0
   -0.1152   -0.9527    3.2195 H   0  0  0  0  0  0  0  0  0  0  0  0
   -2.2997   -1.0539    2.5093 H   0  0  0  0  0  0  0  0  0  0  0  0
   -2.9928    1.1397    1.8488 H   0  0  0  0  0  0  0  0  0  0  0  0
   -2.4775    2.4782    0.0607 H   0  0  0  0  0  0  0  0  0  0  0  0
    0.2585    2.2732   -0.4053 H   0  0  0  0  0  0  0  0  0  0  0  0
   -0.5981    3.2973    0.7336 H   0  0  0  0  0  0  0  0  0  0  0  0
   -2.8877    1.4456   -1.6747 H   0  0  0  0  0  0  0  0  0  0  0  0
   -1.4003    1.9162   -3.4497 H   0  0  0  0  0  0  0  0  0  0  0  0
   -0.0499    1.0080   -2.7283 H   0  0  0  0  0  0  0  0  0  0  0  0
   -2.9659   -0.1595   -3.3091 H   0  0  0  0  0  0  0  0  0  0  0  0
   -1.4189   -0.9816   -3.6645 H   0  0  0  0  0  0  0  0  0  0  0  0
   -0.6453   -0.7838   -1.3691 H   0  0  0  0  0  0  0  0  0  0  0  0
   -3.3455   -3.0140    0.6154 H   0  0  0  0  0  0  0  0  0  0  0  0
   -2.1534   -3.3824   -0.6895 H   0  0  0  0  0  0  0  0  0  0  0  0
   -0.5276   -1.9806    0.4304 H   0  0  0  0  0  0  0  0  0  0  0  0
    5.5658    0.5551    0.8806 H   0  0  0  0  0  0  0  0  0  0  0  0
    6.3384   -1.0277    0.5650 H   0  0  0  0  0  0  0  0  0  0  0  0
    5.6524   -0.1028   -0.7946 H   0  0  0  0  0  0  0  0  0  0  0  0
  2  1  1  0  0  0  0
  3  2  1  0  0  0  0
  4  3  1  0  0  0  0
  5  4  1  0  0  0  0
  6  5  2  0  0  0  0
  7  6  1  0  0  0  0
  7  4  1  0  0  0  0
  8  7  1  0  0  0  0
  9  8  1  0  0  0  0
 10  9  1  0  0  0  0
 11 10  1  0  0  0  0
 11  5  1  0  0  0  0
 12 10  1  0  0  0  0
 13 12  1  0  0  0  0
 14 13  1  0  0  0  0
 15 14  1  0  0  0  0
 15 12  1  0  0  0  0
 16 15  1  0  0  0  0
 17 16  1  0  0  0  0
 18 17  1  0  0  0  0
 18  8  1  0  0  0  0
 18 16  1  0  0  0  0
 19 16  1  0  0  0  0
 19  9  1  0  0  0  0
 20 19  1  0  0  0  0
 21 19  1  0  0  0  0
 22  2  1  0  0  0  0
 23 22  1  0  0  0  0
 24 22  2  0  0  0  0
 25 22  2  0  0  0  0
  1 26  1  0  0  0  0
  1 27  1  0  0  0  0
  1 28  1  0  0  0  0
  2 29  1  0  0  0  0
  3 30  1  0  0  0  0
  4 31  1  0  0  0  0
  6 32  1  0  0  0  0
  7 33  1  0  0  0  0
  8 34  1  0  0  0  0
  9 35  1  0  0  0  0
 10 36  1  0  0  0  0
 11 37  1  0  0  0  0
 11 38  1  0  0  0  0
 12 39  1  0  0  0  0
 13 40  1  0  0  0  0
 13 41  1  0  0  0  0
 14 42  1  0  0  0  0
 14 43  1  0  0  0  0
 15 44  1  0  0  0  0
 17 45  1  0  0  0  0
 17 46  1  0  0  0  0
 18 47  1  0  0  0  0
 23 48  1  0  0  0  0
 23 49  1  0  0  0  0
 23 50  1  0  0  0  0
M  END
>  <energy>
219.47915172972935

$$$$
