CC(C)(C)OC(=O)CC(CO)=NC(=O)C1C(CCCCCC(N)C(=O)O)C2N(C(=O)OC3C4CC3C4)C1C2(C)C
                    3D

 85 88  0  0  0  0  0  0  0  0999 V2000
   -5.2365   -1.0028   -1.4852 C   0  0  0  0  0  0  0  0  0  0  0  0
   -5.6586   -0.3914   -0.1420 C   0  0  0  0  0  0  0  0  0  0  0  0
   -5.5954   -1.4192    0.9900 C   0  0  0  0  0  0  0  0  0  0  0  0
   -7.0882    0.1558   -0.2667 C   0  0  0  0  0  0  0  0  0  0  0  0
   -4.8787    0.7794    0.1788 O   0  0  0  0  0  0  0  0  0  0  0  0
   -3.5333    0.7260    0.2861 C   0  0  0  0  0  0  0  0  0  0  0  0
   -2.8342   -0.2774    0.2145 O   0  0  0  0  0  0  0  0  0  0  0  0
   -3.0025    2.1090    0.4938 C   0  0  0  0  0  0  0  0  0  0  0  0
   -1.8358    2.4023   -0.4160 C   0  0  0  0  0  0  0  0  0  0  0  0
   -2.0415    2.1975   -1.9141 C   0  0  0  0  0  0  0  0  0  0  0  0
   -2.8215    3.2721   -2.4038 O   0  0  0  0  0  0  0  0  0  0  0  0
   -0.7668    2.8485    0.1668 N   0  0  0  0  0  0  0  0  0  0  0  0
    0.3802    3.0906   -0.5391 C   0  0  0  0  0  0  0  0  0  0  0  0
    0.4609    3.8460   -1.4902 O   0  0  0  0  0  0  0  0  0  0  0  0
    1.5266    2.3079    0.0583 C   0  0  0  0  0  0  0  0  0  0  0  0
    1.9729    0.9649   -0.5773 C   0  0  0  0  0  0  0  0  0  0  0  0
    1.5764    0.6691   -2.0337 C   0  0  0  0  0  0  0  0  0  0  0  0
    0.4924   -0.4174   -2.2015 C   0  0  0  0  0  0  0  0  0  0  0  0
    1.0405   -1.7643   -2.6789 C   0  0  0  0  0  0  0  0  0  0  0  0
    1.7852   -2.5731   -1.6180 C   0  0  0  0  0  0  0  0  0  0  0  0
    0.9080   -3.2960   -0.5800 C   0  0  0  0  0  0  0  0  0  0  0  0
    0.0292   -4.4089   -1.1930 C   0  0  0  0  0  0  0  0  0  0  0  0
    0.0885   -5.6666   -0.4088 N   0  0  0  0  0  0  0  0  0  0  0  0
   -1.4335   -3.9474   -1.2914 C   0  0  0  0  0  0  0  0  0  0  0  0
   -1.9840   -3.4828   -2.2805 O   0  0  0  0  0  0  0  0  0  0  0  0
   -2.1060   -4.0564   -0.1216 O   0  0  0  0  0  0  0  0  0  0  0  0
    3.5067    1.1811   -0.4066 C   0  0  0  0  0  0  0  0  0  0  0  0
    3.6500    1.8991    0.8909 N   0  0  0  0  0  0  0  0  0  0  0  0
    3.4163    1.5318    2.1875 C   0  0  0  0  0  0  0  0  0  0  0  0
    3.1258    2.3504    3.0548 O   0  0  0  0  0  0  0  0  0  0  0  0
    3.4075    0.1883    2.3747 O   0  0  0  0  0  0  0  0  0  0  0  0
    2.3123   -0.2509    3.2080 C   0  0  0  0  0  0  0  0  0  0  0  0
    2.1499    0.2429    4.6929 C   0  0  0  0  0  0  0  0  0  0  0  0
    1.2426   -1.0330    4.8562 C   0  0  0  0  0  0  0  0  0  0  0  0
    2.4805   -1.5715    4.0469 C   0  0  0  0  0  0  0  0  0  0  0  0
    3.3276   -0.7231    5.0530 C   0  0  0  0  0  0  0  0  0  0  0  0
    2.8912    2.9985    0.2113 C   0  0  0  0  0  0  0  0  0  0  0  0
    3.9429    2.6467   -0.9312 C   0  0  0  0  0  0  0  0  0  0  0  0
    5.4014    3.0892   -0.6161 C   0  0  0  0  0  0  0  0  0  0  0  0
    3.6195    3.1505   -2.3278 C   0  0  0  0  0  0  0  0  0  0  0  0
   -5.9081   -1.8219   -1.7691 H   0  0  0  0  0  0  0  0  0  0  0  0
   -5.2519   -0.2463   -2.2787 H   0  0  0  0  0  0  0  0  0  0  0  0
   -4.2193   -1.4073   -1.4472 H   0  0  0  0  0  0  0  0  0  0  0  0
   -4.5980   -1.8608    1.0761 H   0  0  0  0  0  0  0  0  0  0  0  0
   -6.3102   -2.2320    0.8211 H   0  0  0  0  0  0  0  0  0  0  0  0
   -5.8146   -0.9491    1.9542 H   0  0  0  0  0  0  0  0  0  0  0  0
   -7.7926   -0.6178   -0.5879 H   0  0  0  0  0  0  0  0  0  0  0  0
   -7.1190    0.9799   -0.9909 H   0  0  0  0  0  0  0  0  0  0  0  0
   -7.4271    0.5709    0.6904 H   0  0  0  0  0  0  0  0  0  0  0  0
   -2.7046    2.1923    1.5459 H   0  0  0  0  0  0  0  0  0  0  0  0
   -3.7833    2.8510    0.3062 H   0  0  0  0  0  0  0  0  0  0  0  0
   -2.5796    1.2622   -2.0922 H   0  0  0  0  0  0  0  0  0  0  0  0
   -1.1036    2.1503   -2.4678 H   0  0  0  0  0  0  0  0  0  0  0  0
   -2.2367    4.0535   -2.4083 H   0  0  0  0  0  0  0  0  0  0  0  0
    1.1658    2.0708    1.0745 H   0  0  0  0  0  0  0  0  0  0  0  0
    1.6512    0.1324    0.0597 H   0  0  0  0  0  0  0  0  0  0  0  0
    1.1810    1.5674   -2.5130 H   0  0  0  0  0  0  0  0  0  0  0  0
    2.4605    0.3825   -2.6099 H   0  0  0  0  0  0  0  0  0  0  0  0
   -0.1143   -0.5300   -1.2988 H   0  0  0  0  0  0  0  0  0  0  0  0
   -0.1874   -0.0694   -2.9924 H   0  0  0  0  0  0  0  0  0  0  0  0
    1.7193   -1.5822   -3.5219 H   0  0  0  0  0  0  0  0  0  0  0  0
    0.2235   -2.3621   -3.0910 H   0  0  0  0  0  0  0  0  0  0  0  0
    2.3763   -3.3330   -2.1396 H   0  0  0  0  0  0  0  0  0  0  0  0
    2.5014   -1.9243   -1.1007 H   0  0  0  0  0  0  0  0  0  0  0  0
    0.3183   -2.5649   -0.0200 H   0  0  0  0  0  0  0  0  0  0  0  0
    1.6022   -3.7285    0.1526 H   0  0  0  0  0  0  0  0  0  0  0  0
    0.3568   -4.6522   -2.2103 H   0  0  0  0  0  0  0  0  0  0  0  0
   -0.5086   -5.5514    0.4170 H   0  0  0  0  0  0  0  0  0  0  0  0
    1.0298   -5.8286   -0.0637 H   0  0  0  0  0  0  0  0  0  0  0  0
   -2.9861   -3.6784   -0.3412 H   0  0  0  0  0  0  0  0  0  0  0  0
    4.1919    0.3460   -0.5786 H   0  0  0  0  0  0  0  0  0  0  0  0
    1.3934   -0.2152    2.6024 H   0  0  0  0  0  0  0  0  0  0  0  0
    1.9394    1.2327    5.0758 H   0  0  0  0  0  0  0  0  0  0  0  0
    0.2750   -1.0199    4.3395 H   0  0  0  0  0  0  0  0  0  0  0  0
    1.0998   -1.4051    5.8750 H   0  0  0  0  0  0  0  0  0  0  0  0
    2.6362   -2.5827    3.6987 H   0  0  0  0  0  0  0  0  0  0  0  0
    3.3651   -1.0762    6.0914 H   0  0  0  0  0  0  0  0  0  0  0  0
    4.3287   -0.4184    4.7332 H   0  0  0  0  0  0  0  0  0  0  0  0
    2.9597    3.9793    0.6913 H   0  0  0  0  0  0  0  0  0  0  0  0
    5.4107    4.1449   -0.3031 H   0  0  0  0  0  0  0  0  0  0  0  0
    5.8703    2.4956    0.1824 H   0  0  0  0  0  0  0  0  0  0  0  0
    6.0405    2.9909   -1.5045 H   0  0  0  0  0  0  0  0  0  0  0  0
    3.9269    4.1967   -2.4405 H   0  0  0  0  0  0  0  0  0  0  0  0
    4.1396    2.5608   -3.0897 H   0  0  0  0  0  0  0  0  0  0  0  0
    2.5634    3.1321   -2.5676 H   0  0  0  0  0  0  0  0  0  0  0  0
  2  1  1  0  0  0  0
  3  2  1  0  0  0  0
  4  2  1  0  0  0  0
  5  2  1  0  0  0  0
  6  5  1  0  0  0  0
  7  6  2  0  0  0  0
  8  6  1  0  0  0  0
  9  8  1  0  0  0  0
 10  9  1  0  0  0  0
 11 10  1  0  0  0  0
 12  9  2  0  0  0  0
 13 12  1  0  0  0  0
 14 13  2  0  0  0  0
 15 13  1  0  0  0  0
 16 15  1  0  0  0  0
 17 16  1  0  0  0  0
 18 17  1  0  0  0  0
 19 18  1  0  0  0  0
 20 19  1  0  0  0  0
 21 20  1  0  0  0  0
 22 21  1  0  0  0  0
 23 22  1  0  0  0  0
 24 22  1  0  0  0  0
 25 24  2  0  0  0  0
 26 24  1  0  0  0  0
 27 16  1  0  0  0  0
 28 27  1  0  0  0  0
 29 28  1  0  0  0  0
 30 29  2  0  0  0  0
 31 29  1  0  0  0  0
 32 31  1  0  0  0  0
 33 32  1  0  0  0  0
 34 33  1  0  0  0  0
 35 34  1  0  0  0  0
 35 32  1  0  0  0  0
 36 35  1  0  0  0  0
 36 33  1  0  0  0  0
 37 28  1  0  0  0  0
 37 15  1  0  0  0  0
 38 37  1  0  0  0  0
 38 27  1  0  0  0  0
 39 38  1  0  0  0  0
 40 38  1  0  0  0  0
  1 41  1  0  0  0  0
  1 42  1  0  0  0  0
  1 43  1  0  0  0  0
  3 44  1  0  0  0  0
  3 45  1  0  0  0  0
  3 46  1  0  0  0  0
  4 47  1  0  0  0  0
  4 48  1  0  0  0  0
  4 49  1  0  0  0  0
  8 50  1  0  0  0  0
  8 51  1  0  0  0  0
 10 52  1  0  0  0  0
 10 53  1  0  0  0  0
 11 54  1  0  0  0  0
 15 55  1  0  0  0  0
 16 56  1  0  0  0  0
 17 57  1  0  0  0  0
 17 58  1  0  0  0  0
 18 59  1  0  0  0  0
 18 60  1  0  0  0  0
 19 61  1  0  0  0  0
 19 62  1  0  0  0  0
 20 63  1  0  0  0  0
 20 64  1  0  0  0  0
 21 65  1  0  0  0  0
 21 66  1  0  0  0  0
 22 67  1  0  0  0  0
 23 68  1  0  0  0  0
 23 69  1  0  0  0  0
 26 70  1  0  0  0  0
 27 71  1  0  0  0  0
 32 72  1  0  0  0  0
 33 73  1  0  0  0  0
 34 74  1  0  0  0  0
 34 75  1  0  0  0  0
 35 76  1  0  0  0  0
 36 77  1  0  0  0  0
 36 78  1  0  0  0  0
 37 79  1  0  0  0  0
 39 80  1  0  0  0  0
 39 81  1  0  0  0  0
 39 82  1  0  0  0  0
 40 83  1  0  0  0  0
 40 84  1  0  0  0  0
 40 85  1  0  0  0  0
M  END
>  <energy>
101.7823982360824

$$$$
