C=CCCC(NC(=O)CNC(C)=O)C(=O)NC(CC(C)C1C2C3CC2(C3)C2C(C(=C)C)CCC12C)C(=O)C(=O)NC1C
                    3D

102106  0  0  0  0  0  0  0  0999 V2000
   -3.1481    4.9561   -2.3185 C   0  0  0  0  0  0  0  0  0  0  0  0
   -2.6940    4.2929   -1.2499 C   0  0  0  0  0  0  0  0  0  0  0  0
   -3.0909    4.5818    0.1730 C   0  0  0  0  0  0  0  0  0  0  0  0
   -3.8843    3.4364    0.8172 C   0  0  0  0  0  0  0  0  0  0  0  0
   -3.4327    3.1717    2.2612 C   0  0  0  0  0  0  0  0  0  0  0  0
   -4.4088    2.3587    2.9908 N   0  0  0  0  0  0  0  0  0  0  0  0
   -4.8882    2.7915    4.2234 C   0  0  0  0  0  0  0  0  0  0  0  0
   -5.1031    3.9659    4.4980 O   0  0  0  0  0  0  0  0  0  0  0  0
   -5.2001    1.6170    5.1603 C   0  0  0  0  0  0  0  0  0  0  0  0
   -4.0038    0.7857    5.2666 N   0  0  0  0  0  0  0  0  0  0  0  0
   -3.0189    1.1705    6.1583 C   0  0  0  0  0  0  0  0  0  0  0  0
   -1.7587    0.3628    6.0486 C   0  0  0  0  0  0  0  0  0  0  0  0
   -3.1323    2.1024    6.9439 O   0  0  0  0  0  0  0  0  0  0  0  0
   -2.1222    2.3327    2.3512 C   0  0  0  0  0  0  0  0  0  0  0  0
   -1.1357    2.6896    2.9879 O   0  0  0  0  0  0  0  0  0  0  0  0
   -2.1685    1.1071    1.6932 N   0  0  0  0  0  0  0  0  0  0  0  0
   -0.9628    0.2492    1.5664 C   0  0  0  0  0  0  0  0  0  0  0  0
   -1.3748   -1.0053    0.7531 C   0  0  0  0  0  0  0  0  0  0  0  0
   -0.6707   -2.3847    0.8856 C   0  0  0  0  0  0  0  0  0  0  0  0
    0.4529   -2.5092    1.9091 C   0  0  0  0  0  0  0  0  0  0  0  0
   -0.3677   -3.1491   -0.4391 C   0  0  0  0  0  0  0  0  0  0  0  0
   -1.4929   -3.0575   -1.5279 C   0  0  0  0  0  0  0  0  0  0  0  0
   -2.3913   -2.0666   -2.3798 C   0  0  0  0  0  0  0  0  0  0  0  0
   -2.1501   -3.1168   -3.5483 C   0  0  0  0  0  0  0  0  0  0  0  0
   -0.7027   -2.9273   -2.9297 C   0  0  0  0  0  0  0  0  0  0  0  0
   -1.1017   -1.3941   -2.8825 C   0  0  0  0  0  0  0  0  0  0  0  0
    0.5024   -3.7053   -2.5775 C   0  0  0  0  0  0  0  0  0  0  0  0
    1.7557   -3.7695   -3.4264 C   0  0  0  0  0  0  0  0  0  0  0  0
    1.7020   -4.5681   -4.7165 C   0  0  0  0  0  0  0  0  0  0  0  0
    0.6734   -5.3584   -5.0634 C   0  0  0  0  0  0  0  0  0  0  0  0
    2.8800   -4.3704   -5.6305 C   0  0  0  0  0  0  0  0  0  0  0  0
    2.7446   -4.3565   -2.3662 C   0  0  0  0  0  0  0  0  0  0  0  0
    2.0777   -4.1508   -0.9610 C   0  0  0  0  0  0  0  0  0  0  0  0
    0.9752   -3.1022   -1.2252 C   0  0  0  0  0  0  0  0  0  0  0  0
    1.6680   -1.7253   -1.2823 C   0  0  0  0  0  0  0  0  0  0  0  0
    0.0174    1.0818    0.7429 C   0  0  0  0  0  0  0  0  0  0  0  0
   -0.3057    1.7211   -0.2588 O   0  0  0  0  0  0  0  0  0  0  0  0
    1.4830    1.0925    1.1805 C   0  0  0  0  0  0  0  0  0  0  0  0
    1.8879    0.3310    2.0370 O   0  0  0  0  0  0  0  0  0  0  0  0
    2.2418    1.9640    0.4303 N   0  0  0  0  0  0  0  0  0  0  0  0
    3.6817    1.8420    0.2950 C   0  0  0  0  0  0  0  0  0  0  0  0
    4.4493    2.6350    1.3653 C   0  0  0  0  0  0  0  0  0  0  0  0
    4.8615    4.0240    0.8883 C   0  0  0  0  0  0  0  0  0  0  0  0
    5.7119    3.9861   -0.3866 C   0  0  0  0  0  0  0  0  0  0  0  0
    5.5098    2.7277   -1.2275 C   0  0  0  0  0  0  0  0  0  0  0  0
    4.0785    2.2276   -1.1406 C   0  0  0  0  0  0  0  0  0  0  0  0
   -2.7872    4.7168   -3.3149 H   0  0  0  0  0  0  0  0  0  0  0  0
   -3.8758    5.7562   -2.2328 H   0  0  0  0  0  0  0  0  0  0  0  0
   -1.9461    3.5135   -1.3990 H   0  0  0  0  0  0  0  0  0  0  0  0
   -3.6947    5.4970    0.2171 H   0  0  0  0  0  0  0  0  0  0  0  0
   -2.1714    4.7897    0.7332 H   0  0  0  0  0  0  0  0  0  0  0  0
   -3.8232    2.5336    0.2030 H   0  0  0  0  0  0  0  0  0  0  0  0
   -4.9475    3.7087    0.8155 H   0  0  0  0  0  0  0  0  0  0  0  0
   -3.2750    4.1189    2.7935 H   0  0  0  0  0  0  0  0  0  0  0  0
   -4.2500    1.3628    2.9268 H   0  0  0  0  0  0  0  0  0  0  0  0
   -5.4938    1.9931    6.1467 H   0  0  0  0  0  0  0  0  0  0  0  0
   -6.0063    1.0102    4.7351 H   0  0  0  0  0  0  0  0  0  0  0  0
   -3.8304    0.0316    4.6122 H   0  0  0  0  0  0  0  0  0  0  0  0
   -1.9701   -0.6404    5.6669 H   0  0  0  0  0  0  0  0  0  0  0  0
   -1.3051    0.2676    7.0401 H   0  0  0  0  0  0  0  0  0  0  0  0
   -1.0619    0.8695    5.3728 H   0  0  0  0  0  0  0  0  0  0  0  0
   -2.8131    1.0506    0.9161 H   0  0  0  0  0  0  0  0  0  0  0  0
   -0.5981    0.0416    2.5736 H   0  0  0  0  0  0  0  0  0  0  0  0
   -2.4332   -1.2026    0.9927 H   0  0  0  0  0  0  0  0  0  0  0  0
   -1.4073   -0.7158   -0.2953 H   0  0  0  0  0  0  0  0  0  0  0  0
   -1.4727   -2.9997    1.3339 H   0  0  0  0  0  0  0  0  0  0  0  0
    0.6903   -3.5646    2.0712 H   0  0  0  0  0  0  0  0  0  0  0  0
    1.3715   -2.0232    1.5963 H   0  0  0  0  0  0  0  0  0  0  0  0
    0.1509   -2.1027    2.8771 H   0  0  0  0  0  0  0  0  0  0  0  0
   -0.4054   -4.2007   -0.1045 H   0  0  0  0  0  0  0  0  0  0  0  0
   -2.0697   -3.9881   -1.3583 H   0  0  0  0  0  0  0  0  0  0  0  0
   -3.3273   -1.6125   -2.0938 H   0  0  0  0  0  0  0  0  0  0  0  0
   -2.2980   -2.7541   -4.5713 H   0  0  0  0  0  0  0  0  0  0  0  0
   -2.6203   -4.1020   -3.4504 H   0  0  0  0  0  0  0  0  0  0  0  0
   -0.6434   -0.7150   -2.1729 H   0  0  0  0  0  0  0  0  0  0  0  0
   -1.1568   -0.8794   -3.8470 H   0  0  0  0  0  0  0  0  0  0  0  0
    0.1734   -4.7473   -2.4060 H   0  0  0  0  0  0  0  0  0  0  0  0
    2.0614   -2.7479   -3.6905 H   0  0  0  0  0  0  0  0  0  0  0  0
    0.6615   -5.9040   -6.0018 H   0  0  0  0  0  0  0  0  0  0  0  0
   -0.1913   -5.4843   -4.4197 H   0  0  0  0  0  0  0  0  0  0  0  0
    2.7927   -4.9612   -6.5478 H   0  0  0  0  0  0  0  0  0  0  0  0
    2.9580   -3.3159   -5.9192 H   0  0  0  0  0  0  0  0  0  0  0  0
    3.8091   -4.6620   -5.1299 H   0  0  0  0  0  0  0  0  0  0  0  0
    2.9396   -5.4231   -2.5290 H   0  0  0  0  0  0  0  0  0  0  0  0
    3.7055   -3.8324   -2.4188 H   0  0  0  0  0  0  0  0  0  0  0  0
    1.6489   -5.1053   -0.6266 H   0  0  0  0  0  0  0  0  0  0  0  0
    2.8104   -3.8435   -0.2062 H   0  0  0  0  0  0  0  0  0  0  0  0
    2.7356   -1.8092   -1.5213 H   0  0  0  0  0  0  0  0  0  0  0  0
    1.6292   -1.2175   -0.3221 H   0  0  0  0  0  0  0  0  0  0  0  0
    1.2713   -1.0525   -2.0367 H   0  0  0  0  0  0  0  0  0  0  0  0
    1.7225    2.5291   -0.2371 H   0  0  0  0  0  0  0  0  0  0  0  0
    3.9260    0.7814    0.4479 H   0  0  0  0  0  0  0  0  0  0  0  0
    5.3654    2.0818    1.6166 H   0  0  0  0  0  0  0  0  0  0  0  0
    3.8693    2.7116    2.2914 H   0  0  0  0  0  0  0  0  0  0  0  0
    5.4194    4.5415    1.6789 H   0  0  0  0  0  0  0  0  0  0  0  0
    3.9610    4.6221    0.7034 H   0  0  0  0  0  0  0  0  0  0  0  0
    5.4733    4.8726   -0.9879 H   0  0  0  0  0  0  0  0  0  0  0  0
    6.7746    4.0706   -0.1296 H   0  0  0  0  0  0  0  0  0  0  0  0
    6.1902    1.9404   -0.8842 H   0  0  0  0  0  0  0  0  0  0  0  0
    5.7704    2.9370   -2.2708 H   0  0  0  0  0  0  0  0  0  0  0  0
    3.9379    1.3598   -1.7964 H   0  0  0  0  0  0  0  0  0  0  0  0
    3.4117    3.0100   -1.5294 H   0  0  0  0  0  0  0  0  0  0  0  0
  2  1  2  0  0  0  0
  3  2  1  0  0  0  0
  4  3  1  0  0  0  0
  5  4  1  0  0  0  0
  6  5  1  0  0  0  0
  7  6  1  0  0  0  0
  8  7  2  0  0  0  0
  9  7  1  0  0  0  0
 10  9  1  0  0  0  0
 11 10  1  0  0  0  0
 12 11  1  0  0  0  0
 13 11  2  0  0  0  0
 14  5  1  0  0  0  0
 15 14  2  0  0  0  0
 16 14  1  0  0  0  0
 17 16  1  0  0  0  0
 18 17  1  0  0  0  0
 19 18  1  0  0  0  0
 20 19  1  0  0  0  0
 21 19  1  0  0  0  0
 22 21  1  0  0  0  0
 23 22  1  0  0  0  0
 24 23  1  0  0  0  0
 25 24  1  0  0  0  0
 25 22  1  0  0  0  0
 26 25  1  0  0  0  0
 26 23  1  0  0  0  0
 27 25  1  0  0  0  0
 28 27  1  0  0  0  0
 29 28  1  0  0  0  0
 30 29  2  0  0  0  0
 31 29  1  0  0  0  0
 32 28  1  0  0  0  0
 33 32  1  0  0  0  0
 34 33  1  0  0  0  0
 34 21  1  0  0  0  0
 34 27  1  0  0  0  0
 35 34  1  0  0  0  0
 36 17  1  0  0  0  0
 37 36  2  0  0  0  0
 38 36  1  0  0  0  0
 39 38  2  0  0  0  0
 40 38  1  0  0  0  0
 41 40  1  0  0  0  0
 42 41  1  0  0  0  0
 43 42  1  0  0  0  0
 44 43  1  0  0  0  0
 45 44  1  0  0  0  0
 46 45  1  0  0  0  0
 46 41  1  0  0  0  0
  1 47  1  0  0  0  0
  1 48  1  0  0  0  0
  2 49  1  0  0  0  0
  3 50  1  0  0  0  0
  3 51  1  0  0  0  0
  4 52  1  0  0  0  0
  4 53  1  0  0  0  0
  5 54  1  0  0  0  0
  6 55  1  0  0  0  0
  9 56  1  0  0  0  0
  9 57  1  0  0  0  0
 10 58  1  0  0  0  0
 12 59  1  0  0  0  0
 12 60  1  0  0  0  0
 12 61  1  0  0  0  0
 16 62  1  0  0  0  0
 17 63  1  0  0  0  0
 18 64  1  0  0  0  0
 18 65  1  0  0  0  0
 19 66  1  0  0  0  0
 20 67  1  0  0  0  0
 20 68  1  0  0  0  0
 20 69  1  0  0  0  0
 21 70  1  0  0  0  0
 22 71  1  0  0  0  0
 23 72  1  0  0  0  0
 24 73  1  0  0  0  0
 24 74  1  0  0  0  0
 26 75  1  0  0  0  0
 26 76  1  0  0  0  0
 27 77  1  0  0  0  0
 28 78  1  0  0  0  0
 30 79  1  0  0  0  0
 30 80  1  0  0  0  0
 31 81  1  0  0  0  0
 31 82  1  0  0  0  0
 31 83  1  0  0  0  0
 32 84  1  0  0  0  0
 32 85  1  0  0  0  0
 33 86  1  0  0  0  0
 33 87  1  0  0  0  0
 35 88  1  0  0  0  0
 35 89  1  0  0  0  0
 35 90  1  0  0  0  0
 40 91  1  0  0  0  0
 41 92  1  0  0  0  0
 42 93  1  0  0  0  0
 42 94  1  0  0  0  0
 43 95  1  0  0  0  0
 43 96  1  0  0  0  0
 44 97  1  0  0  0  0
 44 98  1  0  0  0  0
 45 99  1  0  0  0  0
 45100  1  0  0  0  0
 46101  1  0  0  0  0
 46102  1  0  0  0  0
M  END
>  <energy>
227.14975601581764

$$$$
