C=CCN1CCC2C3C4C5CCCC6(CO)CC3(O)C(C24)(C51)N(C)C6=O
                    3D

 56 61  0  0  0  0  0  0  0  0999 V2000
   -3.7993    2.1880   -2.2191 C   0  0  0  0  0  0  0  0  0  0  0  0
   -3.6866    0.8862   -2.5177 C   0  0  0  0  0  0  0  0  0  0  0  0
   -2.6785   -0.0974   -1.9873 C   0  0  0  0  0  0  0  0  0  0  0  0
   -1.9325    0.3308   -0.8024 N   0  0  0  0  0  0  0  0  0  0  0  0
   -2.8309    0.3542    0.4997 C   0  0  0  0  0  0  0  0  0  0  0  0
   -2.2951   -0.0385    2.1064 C   0  0  0  0  0  0  0  0  0  0  0  0
   -1.3478   -1.3543    2.3284 C   0  0  0  0  0  0  0  0  0  0  0  0
    0.2391   -1.8324    2.0512 C   0  0  0  0  0  0  0  0  0  0  0  0
   -0.2368   -2.3461    0.6409 C   0  0  0  0  0  0  0  0  0  0  0  0
   -0.1863   -1.8077   -0.8580 C   0  0  0  0  0  0  0  0  0  0  0  0
    1.0503   -2.2045   -1.6586 C   0  0  0  0  0  0  0  0  0  0  0  0
    2.4475   -1.6415   -1.3978 C   0  0  0  0  0  0  0  0  0  0  0  0
    2.6453   -0.1268   -1.2095 C   0  0  0  0  0  0  0  0  0  0  0  0
    2.6398    0.4784    0.2383 C   0  0  0  0  0  0  0  0  0  0  0  0
    4.0519    1.0765    0.5313 C   0  0  0  0  0  0  0  0  0  0  0  0
    4.5036    1.9664   -0.4851 O   0  0  0  0  0  0  0  0  0  0  0  0
    2.3681   -0.5667    1.3475 C   0  0  0  0  0  0  0  0  0  0  0  0
    0.9189   -0.5611    1.7153 C   0  0  0  0  0  0  0  0  0  0  0  0
    0.8440    0.2344    2.9252 O   0  0  0  0  0  0  0  0  0  0  0  0
   -0.0525   -0.0344    0.6264 C   0  0  0  0  0  0  0  0  0  0  0  0
   -1.1326   -1.1864    0.9166 C   0  0  0  0  0  0  0  0  0  0  0  0
   -0.4735   -0.2690   -0.7923 C   0  0  0  0  0  0  0  0  0  0  0  0
    0.2754    1.4021    0.7306 N   0  0  0  0  0  0  0  0  0  0  0  0
   -0.6491    2.5257    0.6396 C   0  0  0  0  0  0  0  0  0  0  0  0
    1.6259    1.6932    0.3501 C   0  0  0  0  0  0  0  0  0  0  0  0
    1.9944    2.8398    0.0904 O   0  0  0  0  0  0  0  0  0  0  0  0
   -3.1252    2.6771   -1.5252 H   0  0  0  0  0  0  0  0  0  0  0  0
   -4.5632    2.8015   -2.6837 H   0  0  0  0  0  0  0  0  0  0  0  0
   -4.3819    0.4733   -3.2470 H   0  0  0  0  0  0  0  0  0  0  0  0
   -3.1807   -1.0514   -1.7882 H   0  0  0  0  0  0  0  0  0  0  0  0
   -1.9833   -0.2898   -2.8147 H   0  0  0  0  0  0  0  0  0  0  0  0
   -3.6818   -0.3239    0.3274 H   0  0  0  0  0  0  0  0  0  0  0  0
   -3.2790    1.3522    0.5683 H   0  0  0  0  0  0  0  0  0  0  0  0
   -3.2137   -0.1973    2.6871 H   0  0  0  0  0  0  0  0  0  0  0  0
   -1.8005    0.8267    2.5560 H   0  0  0  0  0  0  0  0  0  0  0  0
   -1.9895   -2.2015    2.6072 H   0  0  0  0  0  0  0  0  0  0  0  0
    0.6651   -2.5554    2.7471 H   0  0  0  0  0  0  0  0  0  0  0  0
   -0.6899   -3.3449    0.6801 H   0  0  0  0  0  0  0  0  0  0  0  0
   -1.0214   -2.2817   -1.3999 H   0  0  0  0  0  0  0  0  0  0  0  0
    1.1325   -3.2996   -1.6274 H   0  0  0  0  0  0  0  0  0  0  0  0
    0.8197   -1.9640   -2.7069 H   0  0  0  0  0  0  0  0  0  0  0  0
    2.9566   -2.2298   -0.6327 H   0  0  0  0  0  0  0  0  0  0  0  0
    3.0213   -1.9020   -2.3019 H   0  0  0  0  0  0  0  0  0  0  0  0
    1.9950    0.4369   -1.8835 H   0  0  0  0  0  0  0  0  0  0  0  0
    3.6398    0.0576   -1.6403 H   0  0  0  0  0  0  0  0  0  0  0  0
    4.7919    0.2708    0.6080 H   0  0  0  0  0  0  0  0  0  0  0  0
    4.0618    1.6271    1.4794 H   0  0  0  0  0  0  0  0  0  0  0  0
    3.8508    2.6982   -0.5127 H   0  0  0  0  0  0  0  0  0  0  0  0
    2.7212   -1.5706    1.1180 H   0  0  0  0  0  0  0  0  0  0  0  0
    2.9586   -0.3029    2.2384 H   0  0  0  0  0  0  0  0  0  0  0  0
    0.5839    1.1326    2.6443 H   0  0  0  0  0  0  0  0  0  0  0  0
   -2.0440   -1.5519    0.3938 H   0  0  0  0  0  0  0  0  0  0  0  0
    0.0533    0.2760   -1.5729 H   0  0  0  0  0  0  0  0  0  0  0  0
   -1.5026    2.4035    1.2971 H   0  0  0  0  0  0  0  0  0  0  0  0
   -0.9507    2.6847   -0.3974 H   0  0  0  0  0  0  0  0  0  0  0  0
   -0.1467    3.4397    0.9721 H   0  0  0  0  0  0  0  0  0  0  0  0
  2  1  2  0  0  0  0
  3  2  1  0  0  0  0
  4  3  1  0  0  0  0
  5  4  1  0  0  0  0
  6  5  1  0  0  0  0
  7  6  1  0  0  0  0
  8  7  1  0  0  0  0
  9  8  1  0  0  0  0
 10  9  1  0  0  0  0
 11 10  1  0  0  0  0
 12 11  1  0  0  0  0
 13 12  1  0  0  0  0
 14 13  1  0  0  0  0
 15 14  1  0  0  0  0
 16 15  1  0  0  0  0
 17 14  1  0  0  0  0
 18 17  1  0  0  0  0
 18  8  1  0  0  0  0
 19 18  1  0  0  0  0
 20 18  1  0  0  0  0
 21 20  1  0  0  0  0
 21  7  1  0  0  0  0
 21  9  1  0  0  0  0
 22 20  1  0  0  0  0
 22 10  1  0  0  0  0
 22  4  1  0  0  0  0
 23 20  1  0  0  0  0
 24 23  1  0  0  0  0
 25 23  1  0  0  0  0
 25 14  1  0  0  0  0
 26 25  2  0  0  0  0
  1 27  1  0  0  0  0
  1 28  1  0  0  0  0
  2 29  1  0  0  0  0
  3 30  1  0  0  0  0
  3 31  1  0  0  0  0
  5 32  1  0  0  0  0
  5 33  1  0  0  0  0
  6 34  1  0  0  0  0
  6 35  1  0  0  0  0
  7 36  1  0  0  0  0
  8 37  1  0  0  0  0
  9 38  1  0  0  0  0
 10 39  1  0  0  0  0
 11 40  1  0  0  0  0
 11 41  1  0  0  0  0
 12 42  1  0  0  0  0
 12 43  1  0  0  0  0
 13 44  1  0  0  0  0
 13 45  1  0  0  0  0
 15 46  1  0  0  0  0
 15 47  1  0  0  0  0
 16 48  1  0  0  0  0
 17 49  1  0  0  0  0
 17 50  1  0  0  0  0
 19 51  1  0  0  0  0
 21 52  1  0  0  0  0
 22 53  1  0  0  0  0
 24 54  1  0  0  0  0
 24 55  1  0  0  0  0
 24 56  1  0  0  0  0
M  END
>  <energy>
352.5263983018358

$$$$
