CC(C)OC(=O)C(C)(C)NC(O)C1C2C=CC2C1C(=O)Nc1ccc(C(F)(F)F)nc1
                    3D

 57 59  0  0  0  0  0  0  0  0999 V2000
   -3.5237   -1.2753    1.4212 C   0  0  0  0  0  0  0  0  0  0  0  0
   -3.6251    0.2115    1.1124 C   0  0  0  0  0  0  0  0  0  0  0  0
   -4.8499    0.5165    0.2552 C   0  0  0  0  0  0  0  0  0  0  0  0
   -2.4401    0.6217    0.3939 O   0  0  0  0  0  0  0  0  0  0  0  0
   -2.0510    1.9147    0.6138 C   0  0  0  0  0  0  0  0  0  0  0  0
   -2.5522    2.6476    1.4572 O   0  0  0  0  0  0  0  0  0  0  0  0
   -0.8453    2.3355   -0.2578 C   0  0  0  0  0  0  0  0  0  0  0  0
   -0.8299    3.8734   -0.3692 C   0  0  0  0  0  0  0  0  0  0  0  0
   -1.0134    1.8048   -1.6922 C   0  0  0  0  0  0  0  0  0  0  0  0
    0.4498    1.8055    0.2493 N   0  0  0  0  0  0  0  0  0  0  0  0
    0.6153    1.7311    1.6924 C   0  0  0  0  0  0  0  0  0  0  0  0
    0.6047    3.0141    2.2602 O   0  0  0  0  0  0  0  0  0  0  0  0
    1.9378    1.0476    2.0756 C   0  0  0  0  0  0  0  0  0  0  0  0
    3.2777    1.8096    2.2333 C   0  0  0  0  0  0  0  0  0  0  0  0
    3.7947    2.6526    1.0806 C   0  0  0  0  0  0  0  0  0  0  0  0
    4.6255    1.6800    0.6541 C   0  0  0  0  0  0  0  0  0  0  0  0
    3.9857    0.6250    1.5417 C   0  0  0  0  0  0  0  0  0  0  0  0
    2.6188    0.1264    1.0128 C   0  0  0  0  0  0  0  0  0  0  0  0
    2.2575   -1.3616    0.9968 C   0  0  0  0  0  0  0  0  0  0  0  0
    2.9792   -2.2554    1.4270 O   0  0  0  0  0  0  0  0  0  0  0  0
    1.0280   -1.5699    0.3756 N   0  0  0  0  0  0  0  0  0  0  0  0
    0.7745   -2.5723   -0.5900 C   0  0  0  0  0  0  0  0  0  0  0  0
    1.6848   -3.5552   -0.9592 C   0  0  0  0  0  0  0  0  0  0  0  0
    1.4112   -4.3506   -2.0761 C   0  0  0  0  0  0  0  0  0  0  0  0
    0.2218   -4.1684   -2.7905 C   0  0  0  0  0  0  0  0  0  0  0  0
   -0.0075   -4.9952   -4.0552 C   0  0  0  0  0  0  0  0  0  0  0  0
    1.0478   -4.9231   -4.9212 F   0  0  0  0  0  0  0  0  0  0  0  0
   -1.0984   -4.6162   -4.7813 F   0  0  0  0  0  0  0  0  0  0  0  0
   -0.1742   -6.3234   -3.7944 F   0  0  0  0  0  0  0  0  0  0  0  0
   -0.7133   -3.2614   -2.3963 N   0  0  0  0  0  0  0  0  0  0  0  0
   -0.4115   -2.4917   -1.3204 C   0  0  0  0  0  0  0  0  0  0  0  0
   -2.6750   -1.4631    2.0875 H   0  0  0  0  0  0  0  0  0  0  0  0
   -4.4321   -1.6387    1.9136 H   0  0  0  0  0  0  0  0  0  0  0  0
   -3.3589   -1.8624    0.5145 H   0  0  0  0  0  0  0  0  0  0  0  0
   -3.7023    0.7334    2.0731 H   0  0  0  0  0  0  0  0  0  0  0  0
   -4.9125    1.5871    0.0339 H   0  0  0  0  0  0  0  0  0  0  0  0
   -4.8014   -0.0011   -0.7084 H   0  0  0  0  0  0  0  0  0  0  0  0
   -5.7740    0.2232    0.7615 H   0  0  0  0  0  0  0  0  0  0  0  0
   -1.7643    4.2338   -0.8139 H   0  0  0  0  0  0  0  0  0  0  0  0
   -0.0133    4.2196   -1.0124 H   0  0  0  0  0  0  0  0  0  0  0  0
   -0.7298    4.3811    0.5950 H   0  0  0  0  0  0  0  0  0  0  0  0
   -0.9553    0.7150   -1.7405 H   0  0  0  0  0  0  0  0  0  0  0  0
   -1.9853    2.1029   -2.0987 H   0  0  0  0  0  0  0  0  0  0  0  0
   -0.2399    2.2074   -2.3575 H   0  0  0  0  0  0  0  0  0  0  0  0
    1.1984    2.4160   -0.0938 H   0  0  0  0  0  0  0  0  0  0  0  0
   -0.1843    1.1228    2.1296 H   0  0  0  0  0  0  0  0  0  0  0  0
   -0.3263    3.2856    2.3410 H   0  0  0  0  0  0  0  0  0  0  0  0
    1.7465    0.5145    3.0266 H   0  0  0  0  0  0  0  0  0  0  0  0
    3.6143    2.0472    3.2491 H   0  0  0  0  0  0  0  0  0  0  0  0
    3.6366    3.6972    0.8172 H   0  0  0  0  0  0  0  0  0  0  0  0
    5.3852    1.6039   -0.1185 H   0  0  0  0  0  0  0  0  0  0  0  0
    4.5964   -0.0079    2.1893 H   0  0  0  0  0  0  0  0  0  0  0  0
    2.4822    0.4780   -0.0243 H   0  0  0  0  0  0  0  0  0  0  0  0
    0.4310   -0.7500    0.2857 H   0  0  0  0  0  0  0  0  0  0  0  0
    2.6291   -3.6845   -0.4350 H   0  0  0  0  0  0  0  0  0  0  0  0
    2.1306   -5.0951   -2.3954 H   0  0  0  0  0  0  0  0  0  0  0  0
   -1.1748   -1.7636   -1.0685 H   0  0  0  0  0  0  0  0  0  0  0  0
  2  1  1  0  0  0  0
  3  2  1  0  0  0  0
  4  2  1  0  0  0  0
  5  4  1  0  0  0  0
  6  5  2  0  0  0  0
  7  5  1  0  0  0  0
  8  7  1  0  0  0  0
  9  7  1  0  0  0  0
 10  7  1  0  0  0  0
 11 10  1  0  0  0  0
 12 11  1  0  0  0  0
 13 11  1  0  0  0  0
 14 13  1  0  0  0  0
 15 14  1  0  0  0  0
 16 15  2  0  0  0  0
 17 16  1  0  0  0  0
 17 14  1  0  0  0  0
 18 17  1  0  0  0  0
 18 13  1  0  0  0  0
 19 18  1  0  0  0  0
 20 19  2  0  0  0  0
 21 19  1  0  0  0  0
 22 21  1  0  0  0  0
 23 22  2  0  0  0  0
 24 23  1  0  0  0  0
 25 24  2  0  0  0  0
 26 25  1  0  0  0  0
 27 26  1  0  0  0  0
 28 26  1  0  0  0  0
 29 26  1  0  0  0  0
 30 25  1  0  0  0  0
 31 30  2  0  0  0  0
 31 22  1  0  0  0  0
  1 32  1  0  0  0  0
  1 33  1  0  0  0  0
  1 34  1  0  0  0  0
  2 35  1  0  0  0  0
  3 36  1  0  0  0  0
  3 37  1  0  0  0  0
  3 38  1  0  0  0  0
  8 39  1  0  0  0  0
  8 40  1  0  0  0  0
  8 41  1  0  0  0  0
  9 42  1  0  0  0  0
  9 43  1  0  0  0  0
  9 44  1  0  0  0  0
 10 45  1  0  0  0  0
 11 46  1  0  0  0  0
 12 47  1  0  0  0  0
 13 48  1  0  0  0  0
 14 49  1  0  0  0  0
 15 50  1  0  0  0  0
 16 51  1  0  0  0  0
 17 52  1  0  0  0  0
 18 53  1  0  0  0  0
 21 54  1  0  0  0  0
 23 55  1  0  0  0  0
 24 56  1  0  0  0  0
 31 57  1  0  0  0  0
M  END
>  <energy>
95.691318465985617

$$$$
