CC=C(C)OC1CC23C4OCC(CO)C5C6C(OC)=C(OC)C1(COC)C1C(C)C5(O)C(C62C(=O)O)C143
                    3D

 75 81  0  0  0  0  0  0  0  0999 V2000
   -4.1686    0.6292    3.1352 C   0  0  0  0  0  0  0  0  0  0  0  0
   -3.3692    1.1671    1.9946 C   0  0  0  0  0  0  0  0  0  0  0  0
   -3.8209    1.3920    0.7514 C   0  0  0  0  0  0  0  0  0  0  0  0
   -5.2760    1.2157    0.4068 C   0  0  0  0  0  0  0  0  0  0  0  0
   -3.0658    1.8006   -0.3226 O   0  0  0  0  0  0  0  0  0  0  0  0
   -1.6522    1.5608   -0.5611 C   0  0  0  0  0  0  0  0  0  0  0  0
   -0.7611    2.4404    0.3604 C   0  0  0  0  0  0  0  0  0  0  0  0
    0.4546    1.7220    0.8849 C   0  0  0  0  0  0  0  0  0  0  0  0
    0.5736    1.3342    2.3817 C   0  0  0  0  0  0  0  0  0  0  0  0
    1.9561    1.4690    2.8030 O   0  0  0  0  0  0  0  0  0  0  0  0
    2.7459    0.2786    2.9373 C   0  0  0  0  0  0  0  0  0  0  0  0
    3.6652   -0.0737    1.7146 C   0  0  0  0  0  0  0  0  0  0  0  0
    4.5686    1.1131    1.3359 C   0  0  0  0  0  0  0  0  0  0  0  0
    5.4936    1.3991    2.3824 O   0  0  0  0  0  0  0  0  0  0  0  0
    2.9805   -0.7090    0.4359 C   0  0  0  0  0  0  0  0  0  0  0  0
    2.4754    0.3590   -0.7478 C   0  0  0  0  0  0  0  0  0  0  0  0
    1.4368   -0.0184   -2.0736 C   0  0  0  0  0  0  0  0  0  0  0  0
    2.1661   -0.1555   -3.2526 O   0  0  0  0  0  0  0  0  0  0  0  0
    3.1952   -1.1434   -3.1654 C   0  0  0  0  0  0  0  0  0  0  0  0
    0.0084   -0.0540   -2.0769 C   0  0  0  0  0  0  0  0  0  0  0  0
   -0.6787   -0.2387   -3.2739 O   0  0  0  0  0  0  0  0  0  0  0  0
   -0.3374   -1.4753   -3.9036 C   0  0  0  0  0  0  0  0  0  0  0  0
   -1.2156    0.0107   -0.7462 C   0  0  0  0  0  0  0  0  0  0  0  0
   -2.5217   -0.7665   -1.1935 C   0  0  0  0  0  0  0  0  0  0  0  0
   -2.3069   -2.0535   -1.7771 O   0  0  0  0  0  0  0  0  0  0  0  0
   -3.3931   -2.4090   -2.6447 C   0  0  0  0  0  0  0  0  0  0  0  0
   -0.8368   -0.5151    0.8770 C   0  0  0  0  0  0  0  0  0  0  0  0
    0.0631   -1.8562    1.0600 C   0  0  0  0  0  0  0  0  0  0  0  0
   -0.0965   -2.4478    2.4527 C   0  0  0  0  0  0  0  0  0  0  0  0
    1.7108   -1.5401    0.7559 C   0  0  0  0  0  0  0  0  0  0  0  0
    1.9129   -2.5350   -0.3182 O   0  0  0  0  0  0  0  0  0  0  0  0
    1.2088   -0.0957    0.3739 C   0  0  0  0  0  0  0  0  0  0  0  0
    1.6924    1.4123    0.0409 C   0  0  0  0  0  0  0  0  0  0  0  0
    1.8278    2.6241   -0.9550 C   0  0  0  0  0  0  0  0  0  0  0  0
    2.7032    3.4914   -0.9392 O   0  0  0  0  0  0  0  0  0  0  0  0
    0.9091    2.7107   -1.9507 O   0  0  0  0  0  0  0  0  0  0  0  0
    0.2631    0.3477    1.3157 C   0  0  0  0  0  0  0  0  0  0  0  0
   -4.9211   -0.0901    2.8040 H   0  0  0  0  0  0  0  0  0  0  0  0
   -4.6417    1.4509    3.6769 H   0  0  0  0  0  0  0  0  0  0  0  0
   -3.5099    0.0952    3.8300 H   0  0  0  0  0  0  0  0  0  0  0  0
   -2.3346    1.3516    2.2354 H   0  0  0  0  0  0  0  0  0  0  0  0
   -5.9511    1.4434    1.2432 H   0  0  0  0  0  0  0  0  0  0  0  0
   -5.5611    1.8909   -0.4036 H   0  0  0  0  0  0  0  0  0  0  0  0
   -5.4581    0.1789    0.0897 H   0  0  0  0  0  0  0  0  0  0  0  0
   -1.5284    1.9963   -1.5690 H   0  0  0  0  0  0  0  0  0  0  0  0
   -1.3398    2.8386    1.2019 H   0  0  0  0  0  0  0  0  0  0  0  0
   -0.4867    3.3685   -0.1576 H   0  0  0  0  0  0  0  0  0  0  0  0
   -0.2041    1.6541    3.0640 H   0  0  0  0  0  0  0  0  0  0  0  0
    2.1329   -0.5851    3.2438 H   0  0  0  0  0  0  0  0  0  0  0  0
    3.4133    0.4694    3.7910 H   0  0  0  0  0  0  0  0  0  0  0  0
    4.3330   -0.8641    2.0931 H   0  0  0  0  0  0  0  0  0  0  0  0
    3.9917    2.0216    1.1591 H   0  0  0  0  0  0  0  0  0  0  0  0
    5.1462    0.8976    0.4276 H   0  0  0  0  0  0  0  0  0  0  0  0
    6.2864    0.8592    2.2153 H   0  0  0  0  0  0  0  0  0  0  0  0
    3.7611   -1.3235   -0.0411 H   0  0  0  0  0  0  0  0  0  0  0  0
    3.3914    0.8076   -1.1558 H   0  0  0  0  0  0  0  0  0  0  0  0
    4.1002   -0.7387   -2.7007 H   0  0  0  0  0  0  0  0  0  0  0  0
    3.4566   -1.4555   -4.1818 H   0  0  0  0  0  0  0  0  0  0  0  0
    2.8597   -2.0352   -2.6320 H   0  0  0  0  0  0  0  0  0  0  0  0
   -1.1965   -1.8154   -4.4932 H   0  0  0  0  0  0  0  0  0  0  0  0
    0.4948   -1.3268   -4.5987 H   0  0  0  0  0  0  0  0  0  0  0  0
   -0.1002   -2.2571   -3.1691 H   0  0  0  0  0  0  0  0  0  0  0  0
   -3.1670   -0.9588   -0.3235 H   0  0  0  0  0  0  0  0  0  0  0  0
   -3.0755   -0.1378   -1.9015 H   0  0  0  0  0  0  0  0  0  0  0  0
   -4.3534   -2.2425   -2.1587 H   0  0  0  0  0  0  0  0  0  0  0  0
   -3.3669   -1.8054   -3.5578 H   0  0  0  0  0  0  0  0  0  0  0  0
   -3.3069   -3.4631   -2.9293 H   0  0  0  0  0  0  0  0  0  0  0  0
   -1.7214   -0.5578    1.5020 H   0  0  0  0  0  0  0  0  0  0  0  0
   -0.3296   -2.5899    0.3508 H   0  0  0  0  0  0  0  0  0  0  0  0
   -1.1331   -2.7364    2.6287 H   0  0  0  0  0  0  0  0  0  0  0  0
    0.1783   -1.7399    3.2357 H   0  0  0  0  0  0  0  0  0  0  0  0
    0.5166   -3.3418    2.5595 H   0  0  0  0  0  0  0  0  0  0  0  0
    1.2025   -2.4751   -0.9821 H   0  0  0  0  0  0  0  0  0  0  0  0
    0.7055   -0.6359   -0.3917 H   0  0  0  0  0  0  0  0  0  0  0  0
    1.2065    3.4613   -2.5025 H   0  0  0  0  0  0  0  0  0  0  0  0
  2  1  1  0  0  0  0
  3  2  2  0  0  0  0
  4  3  1  0  0  0  0
  5  3  1  0  0  0  0
  6  5  1  0  0  0  0
  7  6  1  0  0  0  0
  8  7  1  0  0  0  0
  9  8  1  0  0  0  0
 10  9  1  0  0  0  0
 11 10  1  0  0  0  0
 12 11  1  0  0  0  0
 13 12  1  0  0  0  0
 14 13  1  0  0  0  0
 15 12  1  0  0  0  0
 16 15  1  0  0  0  0
 17 16  1  0  0  0  0
 18 17  1  0  0  0  0
 19 18  1  0  0  0  0
 20 17  2  0  0  0  0
 21 20  1  0  0  0  0
 22 21  1  0  0  0  0
 23 20  1  0  0  0  0
 23  6  1  0  0  0  0
 24 23  1  0  0  0  0
 25 24  1  0  0  0  0
 26 25  1  0  0  0  0
 27 23  1  0  0  0  0
 28 27  1  0  0  0  0
 29 28  1  0  0  0  0
 30 28  1  0  0  0  0
 30 15  1  0  0  0  0
 31 30  1  0  0  0  0
 32 30  1  0  0  0  0
 33 32  1  0  0  0  0
 33 16  1  0  0  0  0
 33  8  1  0  0  0  0
 34 33  1  0  0  0  0
 35 34  2  0  0  0  0
 36 34  1  0  0  0  0
 37 32  1  0  0  0  0
 37 27  1  0  0  0  0
 37  9  1  0  0  0  0
 37  8  1  0  0  0  0
  1 38  1  0  0  0  0
  1 39  1  0  0  0  0
  1 40  1  0  0  0  0
  2 41  1  0  0  0  0
  4 42  1  0  0  0  0
  4 43  1  0  0  0  0
  4 44  1  0  0  0  0
  6 45  1  0  0  0  0
  7 46  1  0  0  0  0
  7 47  1  0  0  0  0
  9 48  1  0  0  0  0
 11 49  1  0  0  0  0
 11 50  1  0  0  0  0
 12 51  1  0  0  0  0
 13 52  1  0  0  0  0
 13 53  1  0  0  0  0
 14 54  1  0  0  0  0
 15 55  1  0  0  0  0
 16 56  1  0  0  0  0
 19 57  1  0  0  0  0
 19 58  1  0  0  0  0
 19 59  1  0  0  0  0
 22 60  1  0  0  0  0
 22 61  1  0  0  0  0
 22 62  1  0  0  0  0
 24 63  1  0  0  0  0
 24 64  1  0  0  0  0
 26 65  1  0  0  0  0
 26 66  1  0  0  0  0
 26 67  1  0  0  0  0
 27 68  1  0  0  0  0
 28 69  1  0  0  0  0
 29 70  1  0  0  0  0
 29 71  1  0  0  0  0
 29 72  1  0  0  0  0
 31 73  1  0  0  0  0
 32 74  1  0  0  0  0
 36 75  1  0  0  0  0
M  END
>  <energy>
499.13425534446418

$$$$
