COC(=O)C1=C(C)OC2CCC(C)C3=CC4C1(O)C1(CCC(C)C1OC(=O)C(C)NC(=O)CCC(=O)O)C324
                    3D

 75 79  0  0  0  0  0  0  0  0999 V2000
   -4.0199    1.2597    4.0432 C   0  0  0  0  0  0  0  0  0  0  0  0
   -3.1958    0.7409    3.0040 O   0  0  0  0  0  0  0  0  0  0  0  0
   -3.8919    0.1605    1.9944 C   0  0  0  0  0  0  0  0  0  0  0  0
   -5.1021    0.0006    1.9394 O   0  0  0  0  0  0  0  0  0  0  0  0
   -2.9404   -0.3463    0.9725 C   0  0  0  0  0  0  0  0  0  0  0  0
   -2.2786   -1.5039    1.2651 C   0  0  0  0  0  0  0  0  0  0  0  0
   -2.4613   -2.2050    2.5956 C   0  0  0  0  0  0  0  0  0  0  0  0
   -1.4604   -2.2528    0.4423 O   0  0  0  0  0  0  0  0  0  0  0  0
   -0.6641   -1.7150   -0.6192 C   0  0  0  0  0  0  0  0  0  0  0  0
   -0.2268   -2.8650   -1.5653 C   0  0  0  0  0  0  0  0  0  0  0  0
    0.5116   -2.3389   -2.8230 C   0  0  0  0  0  0  0  0  0  0  0  0
   -0.4072   -1.5353   -3.7819 C   0  0  0  0  0  0  0  0  0  0  0  0
    0.3832   -0.5562   -4.6348 C   0  0  0  0  0  0  0  0  0  0  0  0
   -1.4331   -0.8522   -2.9042 C   0  0  0  0  0  0  0  0  0  0  0  0
   -2.7255   -0.4539   -2.9765 C   0  0  0  0  0  0  0  0  0  0  0  0
   -2.9086   -0.7332   -1.4886 C   0  0  0  0  0  0  0  0  0  0  0  0
   -2.9216    0.3565   -0.3759 C   0  0  0  0  0  0  0  0  0  0  0  0
   -3.9775    1.3409   -0.5217 O   0  0  0  0  0  0  0  0  0  0  0  0
   -1.4689    0.8622   -0.8751 C   0  0  0  0  0  0  0  0  0  0  0  0
   -1.5427    2.0475   -1.8991 C   0  0  0  0  0  0  0  0  0  0  0  0
   -0.2340    2.7946   -1.7578 C   0  0  0  0  0  0  0  0  0  0  0  0
   -0.0303    2.7808   -0.2568 C   0  0  0  0  0  0  0  0  0  0  0  0
    1.3528    3.2948    0.1080 C   0  0  0  0  0  0  0  0  0  0  0  0
   -0.3021    1.3016    0.0959 C   0  0  0  0  0  0  0  0  0  0  0  0
   -0.6974    1.1852    1.4655 O   0  0  0  0  0  0  0  0  0  0  0  0
    0.1998    1.2509    2.4885 C   0  0  0  0  0  0  0  0  0  0  0  0
    0.0876    2.1182    3.3503 O   0  0  0  0  0  0  0  0  0  0  0  0
    1.1001    0.0023    2.6471 C   0  0  0  0  0  0  0  0  0  0  0  0
    1.7881   -0.0260    4.0116 C   0  0  0  0  0  0  0  0  0  0  0  0
    2.0227   -0.2838    1.5484 N   0  0  0  0  0  0  0  0  0  0  0  0
    3.0965    0.5274    1.2652 C   0  0  0  0  0  0  0  0  0  0  0  0
    3.3708    1.5427    1.8912 O   0  0  0  0  0  0  0  0  0  0  0  0
    3.9070    0.0813    0.0740 C   0  0  0  0  0  0  0  0  0  0  0  0
    5.1805   -0.6075    0.5243 C   0  0  0  0  0  0  0  0  0  0  0  0
    5.6797   -1.5346   -0.5416 C   0  0  0  0  0  0  0  0  0  0  0  0
    5.8774   -2.7319   -0.4149 O   0  0  0  0  0  0  0  0  0  0  0  0
    5.9082   -0.9159   -1.7142 O   0  0  0  0  0  0  0  0  0  0  0  0
   -1.3648   -0.6401   -1.4093 C   0  0  0  0  0  0  0  0  0  0  0  0
   -3.3725    1.7214    4.7933 H   0  0  0  0  0  0  0  0  0  0  0  0
   -4.7005    2.0233    3.6520 H   0  0  0  0  0  0  0  0  0  0  0  0
   -4.5835    0.4539    4.5249 H   0  0  0  0  0  0  0  0  0  0  0  0
   -2.0672   -3.2273    2.5501 H   0  0  0  0  0  0  0  0  0  0  0  0
   -1.9170   -1.6817    3.3890 H   0  0  0  0  0  0  0  0  0  0  0  0
   -3.5168   -2.2882    2.8719 H   0  0  0  0  0  0  0  0  0  0  0  0
    0.2537   -1.3363   -0.1710 H   0  0  0  0  0  0  0  0  0  0  0  0
   -1.0956   -3.4656   -1.8633 H   0  0  0  0  0  0  0  0  0  0  0  0
    0.4297   -3.5448   -1.0094 H   0  0  0  0  0  0  0  0  0  0  0  0
    1.3504   -1.7131   -2.4922 H   0  0  0  0  0  0  0  0  0  0  0  0
    0.9520   -3.1805   -3.3702 H   0  0  0  0  0  0  0  0  0  0  0  0
   -0.9325   -2.2443   -4.4360 H   0  0  0  0  0  0  0  0  0  0  0  0
    0.8950    0.1874   -4.0134 H   0  0  0  0  0  0  0  0  0  0  0  0
   -0.2775   -0.0170   -5.3233 H   0  0  0  0  0  0  0  0  0  0  0  0
    1.1379   -1.0806   -5.2309 H   0  0  0  0  0  0  0  0  0  0  0  0
   -3.4476   -0.4130   -3.7904 H   0  0  0  0  0  0  0  0  0  0  0  0
   -3.3977   -1.6864   -1.2586 H   0  0  0  0  0  0  0  0  0  0  0  0
   -4.1339    1.4227   -1.4787 H   0  0  0  0  0  0  0  0  0  0  0  0
   -2.3500    2.7391   -1.6327 H   0  0  0  0  0  0  0  0  0  0  0  0
   -1.6880    1.7694   -2.9429 H   0  0  0  0  0  0  0  0  0  0  0  0
   -0.2946    3.8087   -2.1672 H   0  0  0  0  0  0  0  0  0  0  0  0
    0.5705    2.2611   -2.2777 H   0  0  0  0  0  0  0  0  0  0  0  0
   -0.7738    3.4220    0.2357 H   0  0  0  0  0  0  0  0  0  0  0  0
    1.4881    4.3214   -0.2494 H   0  0  0  0  0  0  0  0  0  0  0  0
    2.1395    2.6852   -0.3452 H   0  0  0  0  0  0  0  0  0  0  0  0
    1.4984    3.3073    1.1910 H   0  0  0  0  0  0  0  0  0  0  0  0
    0.5919    0.7200   -0.1275 H   0  0  0  0  0  0  0  0  0  0  0  0
    0.4037   -0.8455    2.6450 H   0  0  0  0  0  0  0  0  0  0  0  0
    2.3716   -0.9448    4.1369 H   0  0  0  0  0  0  0  0  0  0  0  0
    2.4627    0.8247    4.1472 H   0  0  0  0  0  0  0  0  0  0  0  0
    1.0483    0.0177    4.8188 H   0  0  0  0  0  0  0  0  0  0  0  0
    2.0897   -1.2526    1.2588 H   0  0  0  0  0  0  0  0  0  0  0  0
    3.2955   -0.5759   -0.5568 H   0  0  0  0  0  0  0  0  0  0  0  0
    4.1333    0.9633   -0.5369 H   0  0  0  0  0  0  0  0  0  0  0  0
    5.9637    0.1189    0.7667 H   0  0  0  0  0  0  0  0  0  0  0  0
    5.0050   -1.2025    1.4285 H   0  0  0  0  0  0  0  0  0  0  0  0
    6.2568   -1.6187   -2.3026 H   0  0  0  0  0  0  0  0  0  0  0  0
  2  1  1  0  0  0  0
  3  2  1  0  0  0  0
  4  3  2  0  0  0  0
  5  3  1  0  0  0  0
  6  5  2  0  0  0  0
  7  6  1  0  0  0  0
  8  6  1  0  0  0  0
  9  8  1  0  0  0  0
 10  9  1  0  0  0  0
 11 10  1  0  0  0  0
 12 11  1  0  0  0  0
 13 12  1  0  0  0  0
 14 12  1  0  0  0  0
 15 14  2  0  0  0  0
 16 15  1  0  0  0  0
 17 16  1  0  0  0  0
 17  5  1  0  0  0  0
 18 17  1  0  0  0  0
 19 17  1  0  0  0  0
 20 19  1  0  0  0  0
 21 20  1  0  0  0  0
 22 21  1  0  0  0  0
 23 22  1  0  0  0  0
 24 22  1  0  0  0  0
 24 19  1  0  0  0  0
 25 24  1  0  0  0  0
 26 25  1  0  0  0  0
 27 26  2  0  0  0  0
 28 26  1  0  0  0  0
 29 28  1  0  0  0  0
 30 28  1  0  0  0  0
 31 30  1  0  0  0  0
 32 31  2  0  0  0  0
 33 31  1  0  0  0  0
 34 33  1  0  0  0  0
 35 34  1  0  0  0  0
 36 35  2  0  0  0  0
 37 35  1  0  0  0  0
 38 19  1  0  0  0  0
 38 14  1  0  0  0  0
 38  9  1  0  0  0  0
 38 16  1  0  0  0  0
  1 39  1  0  0  0  0
  1 40  1  0  0  0  0
  1 41  1  0  0  0  0
  7 42  1  0  0  0  0
  7 43  1  0  0  0  0
  7 44  1  0  0  0  0
  9 45  1  0  0  0  0
 10 46  1  0  0  0  0
 10 47  1  0  0  0  0
 11 48  1  0  0  0  0
 11 49  1  0  0  0  0
 12 50  1  0  0  0  0
 13 51  1  0  0  0  0
 13 52  1  0  0  0  0
 13 53  1  0  0  0  0
 15 54  1  0  0  0  0
 16 55  1  0  0  0  0
 18 56  1  0  0  0  0
 20 57  1  0  0  0  0
 20 58  1  0  0  0  0
 21 59  1  0  0  0  0
 21 60  1  0  0  0  0
 22 61  1  0  0  0  0
 23 62  1  0  0  0  0
 23 63  1  0  0  0  0
 23 64  1  0  0  0  0
 24 65  1  0  0  0  0
 28 66  1  0  0  0  0
 29 67  1  0  0  0  0
 29 68  1  0  0  0  0
 29 69  1  0  0  0  0
 30 70  1  0  0  0  0
 33 71  1  0  0  0  0
 33 72  1  0  0  0  0
 34 73  1  0  0  0  0
 34 74  1  0  0  0  0
 37 75  1  0  0  0  0
M  END
>  <energy>
84.497798075761509

$$$$
