CCC(N=c1[nH]c(=N)[nH]c2c3c(C(O)CO)nc(c1-3)N(CN=C(N)N)C(c1cscn1)=N2)c1ccn(C)n1
                    3D

 65 69  0  0  0  0  0  0  0  0999 V2000
    0.2952    4.7493    0.1930 C   0  0  0  0  0  0  0  0  0  0  0  0
    1.5683    3.9666    0.4837 C   0  0  0  0  0  0  0  0  0  0  0  0
    1.3843    2.4434    0.3165 C   0  0  0  0  0  0  0  0  0  0  0  0
    1.0131    2.1829   -1.0856 N   0  0  0  0  0  0  0  0  0  0  0  0
    0.7196    0.9867   -1.5001 C   0  0  0  0  0  0  0  0  0  0  0  0
    0.5369    0.9090   -2.8608 N   0  0  0  0  0  0  0  0  0  0  0  0
    0.2660   -0.0438   -3.7847 C   0  0  0  0  0  0  0  0  0  0  0  0
    0.1929    0.3028   -5.0338 N   0  0  0  0  0  0  0  0  0  0  0  0
    0.0268   -1.3301   -3.4010 N   0  0  0  0  0  0  0  0  0  0  0  0
   -0.0842   -1.8191   -2.1081 C   0  0  0  0  0  0  0  0  0  0  0  0
    0.9165   -1.5608   -1.2109 C   0  0  0  0  0  0  0  0  0  0  0  0
    0.8788   -2.3451    0.0537 C   0  0  0  0  0  0  0  0  0  0  0  0
    1.5468   -3.6880    0.2119 C   0  0  0  0  0  0  0  0  0  0  0  0
    2.0993   -3.7515    1.5307 O   0  0  0  0  0  0  0  0  0  0  0  0
    0.5261   -4.8126    0.0220 C   0  0  0  0  0  0  0  0  0  0  0  0
    0.4794   -5.2440   -1.3374 O   0  0  0  0  0  0  0  0  0  0  0  0
    0.2422   -1.7202    1.0154 N   0  0  0  0  0  0  0  0  0  0  0  0
   -0.1758   -0.5342    0.3776 C   0  0  0  0  0  0  0  0  0  0  0  0
    0.6982   -0.2287   -0.6251 C   0  0  0  0  0  0  0  0  0  0  0  0
   -1.5536   -0.4853    0.0381 N   0  0  0  0  0  0  0  0  0  0  0  0
   -2.4135    0.2397    0.9781 C   0  0  0  0  0  0  0  0  0  0  0  0
   -2.8269    1.5613    0.5271 N   0  0  0  0  0  0  0  0  0  0  0  0
   -2.9596    2.5102    1.3728 C   0  0  0  0  0  0  0  0  0  0  0  0
   -2.7776    2.5621    2.7122 N   0  0  0  0  0  0  0  0  0  0  0  0
   -3.3593    3.7263    0.9388 N   0  0  0  0  0  0  0  0  0  0  0  0
   -2.0051   -1.5292   -0.8242 C   0  0  0  0  0  0  0  0  0  0  0  0
   -3.3993   -1.9451   -0.6828 C   0  0  0  0  0  0  0  0  0  0  0  0
   -3.8786   -2.7404    0.3458 C   0  0  0  0  0  0  0  0  0  0  0  0
   -5.5476   -3.0616    0.1065 S   0  0  0  0  0  0  0  0  0  0  0  0
   -5.4966   -2.1556   -1.3467 C   0  0  0  0  0  0  0  0  0  0  0  0
   -4.3364   -1.6301   -1.6601 N   0  0  0  0  0  0  0  0  0  0  0  0
   -1.3499   -2.2344   -1.7206 N   0  0  0  0  0  0  0  0  0  0  0  0
    2.6659    1.7351    0.6962 C   0  0  0  0  0  0  0  0  0  0  0  0
    3.8495    1.5959   -0.0723 C   0  0  0  0  0  0  0  0  0  0  0  0
    4.6884    0.8281    0.6979 C   0  0  0  0  0  0  0  0  0  0  0  0
    4.0046    0.5634    1.8468 N   0  0  0  0  0  0  0  0  0  0  0  0
    4.4641   -0.2349    2.9567 C   0  0  0  0  0  0  0  0  0  0  0  0
    2.7716    1.0980    1.8734 N   0  0  0  0  0  0  0  0  0  0  0  0
   -0.0205    4.6349   -0.8475 H   0  0  0  0  0  0  0  0  0  0  0  0
   -0.5225    4.4151    0.8372 H   0  0  0  0  0  0  0  0  0  0  0  0
    0.4530    5.8157    0.3770 H   0  0  0  0  0  0  0  0  0  0  0  0
    1.8856    4.1879    1.5117 H   0  0  0  0  0  0  0  0  0  0  0  0
    2.3649    4.3349   -0.1761 H   0  0  0  0  0  0  0  0  0  0  0  0
    0.5673    2.1301    0.9782 H   0  0  0  0  0  0  0  0  0  0  0  0
    0.6427    1.8190   -3.2944 H   0  0  0  0  0  0  0  0  0  0  0  0
   -0.0108   -0.5270   -5.5997 H   0  0  0  0  0  0  0  0  0  0  0  0
   -0.6973   -1.7662   -3.9612 H   0  0  0  0  0  0  0  0  0  0  0  0
    2.3695   -3.7778   -0.5046 H   0  0  0  0  0  0  0  0  0  0  0  0
    1.4428   -3.3100    2.1095 H   0  0  0  0  0  0  0  0  0  0  0  0
   -0.4825   -4.4900    0.3033 H   0  0  0  0  0  0  0  0  0  0  0  0
    0.7752   -5.6795    0.6451 H   0  0  0  0  0  0  0  0  0  0  0  0
    1.3015   -5.7316   -1.5198 H   0  0  0  0  0  0  0  0  0  0  0  0
   -1.8739    0.3078    1.9304 H   0  0  0  0  0  0  0  0  0  0  0  0
   -3.3207   -0.3192    1.2182 H   0  0  0  0  0  0  0  0  0  0  0  0
   -2.7308    1.6805    3.2036 H   0  0  0  0  0  0  0  0  0  0  0  0
   -3.4185    3.2009    3.1745 H   0  0  0  0  0  0  0  0  0  0  0  0
   -2.7823    4.4770    1.2970 H   0  0  0  0  0  0  0  0  0  0  0  0
   -3.3615    3.7400   -0.0793 H   0  0  0  0  0  0  0  0  0  0  0  0
   -3.3374   -3.1355    1.1926 H   0  0  0  0  0  0  0  0  0  0  0  0
   -6.3716   -2.0271   -1.9703 H   0  0  0  0  0  0  0  0  0  0  0  0
    4.0449    1.9907   -1.0603 H   0  0  0  0  0  0  0  0  0  0  0  0
    5.6836    0.4482    0.5207 H   0  0  0  0  0  0  0  0  0  0  0  0
    4.0209    0.1463    3.8792 H   0  0  0  0  0  0  0  0  0  0  0  0
    4.1557   -1.2668    2.7802 H   0  0  0  0  0  0  0  0  0  0  0  0
    5.5517   -0.1645    3.0145 H   0  0  0  0  0  0  0  0  0  0  0  0
  2  1  1  0  0  0  0
  3  2  1  0  0  0  0
  4  3  1  0  0  0  0
  5  4  2  0  0  0  0
  6  5  1  0  0  0  0
  7  6  1  0  0  0  0
  8  7  2  0  0  0  0
  9  7  1  0  0  0  0
 10  9  1  0  0  0  0
 11 10  2  0  0  0  0
 12 11  1  0  0  0  0
 13 12  1  0  0  0  0
 14 13  1  0  0  0  0
 15 13  1  0  0  0  0
 16 15  1  0  0  0  0
 17 12  2  0  0  0  0
 18 17  1  0  0  0  0
 19 18  2  0  0  0  0
 19  5  1  0  0  0  0
 19 11  1  0  0  0  0
 20 18  1  0  0  0  0
 21 20  1  0  0  0  0
 22 21  1  0  0  0  0
 23 22  2  0  0  0  0
 24 23  1  0  0  0  0
 25 23  1  0  0  0  0
 26 20  1  0  0  0  0
 27 26  1  0  0  0  0
 28 27  2  0  0  0  0
 29 28  1  0  0  0  0
 30 29  1  0  0  0  0
 31 30  2  0  0  0  0
 31 27  1  0  0  0  0
 32 26  2  0  0  0  0
 32 10  1  0  0  0  0
 33  3  1  0  0  0  0
 34 33  1  0  0  0  0
 35 34  2  0  0  0  0
 36 35  1  0  0  0  0
 37 36  1  0  0  0  0
 38 36  1  0  0  0  0
 38 33  2  0  0  0  0
  1 39  1  0  0  0  0
  1 40  1  0  0  0  0
  1 41  1  0  0  0  0
  2 42  1  0  0  0  0
  2 43  1  0  0  0  0
  3 44  1  0  0  0  0
  6 45  1  0  0  0  0
  8 46  1  0  0  0  0
  9 47  1  0  0  0  0
 13 48  1  0  0  0  0
 14 49  1  0  0  0  0
 15 50  1  0  0  0  0
 15 51  1  0  0  0  0
 16 52  1  0  0  0  0
 21 53  1  0  0  0  0
 21 54  1  0  0  0  0
 24 55  1  0  0  0  0
 24 56  1  0  0  0  0
 25 57  1  0  0  0  0
 25 58  1  0  0  0  0
 28 59  1  0  0  0  0
 30 60  1  0  0  0  0
 34 61  1  0  0  0  0
 35 62  1  0  0  0  0
 37 63  1  0  0  0  0
 37 64  1  0  0  0  0
 37 65  1  0  0  0  0
M  END
>  <energy>
-40.173609916819828

$$$$
