COc1cc(O)c2c3c1C(N)=C(C(=O)NNS(=O)(=O)O)C(=O)c1c-2oc(CC(N)=O)c-3c(=O)c1=NO
                    3D

 51 54  0  0  0  0  0  0  0  0999 V2000
   -2.9103   -1.1683    3.4847 C   0  0  0  0  0  0  0  0  0  0  0  0
   -3.3350   -0.3937    2.3465 O   0  0  0  0  0  0  0  0  0  0  0  0
   -2.3596    0.4905    1.9723 C   0  0  0  0  0  0  0  0  0  0  0  0
   -2.5326    1.8413    2.2502 C   0  0  0  0  0  0  0  0  0  0  0  0
   -1.6810    2.7365    1.6148 C   0  0  0  0  0  0  0  0  0  0  0  0
   -1.9716    4.0707    1.5466 O   0  0  0  0  0  0  0  0  0  0  0  0
   -0.5048    2.2425    0.9836 C   0  0  0  0  0  0  0  0  0  0  0  0
   -0.1438    0.9238    1.1183 C   0  0  0  0  0  0  0  0  0  0  0  0
   -1.2951    0.0995    1.1341 C   0  0  0  0  0  0  0  0  0  0  0  0
   -1.6793   -0.5996   -0.1490 C   0  0  0  0  0  0  0  0  0  0  0  0
   -2.1854   -1.8905    0.0606 N   0  0  0  0  0  0  0  0  0  0  0  0
   -1.6094    0.0375   -1.3652 C   0  0  0  0  0  0  0  0  0  0  0  0
   -1.8982   -0.7302   -2.6324 C   0  0  0  0  0  0  0  0  0  0  0  0
   -2.5894   -0.2660   -3.5315 O   0  0  0  0  0  0  0  0  0  0  0  0
   -1.3397   -1.9900   -2.7774 N   0  0  0  0  0  0  0  0  0  0  0  0
   -0.3221   -2.5345   -1.8647 N   0  0  0  0  0  0  0  0  0  0  0  0
    0.7097   -3.7376   -2.4466 S   0  0  0  0  0  0  0  0  0  0  0  0
    0.1202   -4.2402   -3.6688 O   0  0  0  0  0  0  0  0  0  0  0  0
    1.0263   -4.6021   -1.3257 O   0  0  0  0  0  0  0  0  0  0  0  0
    2.0203   -2.8743   -2.8168 O   0  0  0  0  0  0  0  0  0  0  0  0
   -1.4374    1.5559   -1.5164 C   0  0  0  0  0  0  0  0  0  0  0  0
   -2.3894    2.2907   -1.7444 O   0  0  0  0  0  0  0  0  0  0  0  0
   -0.0475    2.1208   -1.3214 C   0  0  0  0  0  0  0  0  0  0  0  0
    0.2313    2.7733   -0.1130 C   0  0  0  0  0  0  0  0  0  0  0  0
    1.5621    2.9330    0.1686 O   0  0  0  0  0  0  0  0  0  0  0  0
    2.0710    1.8131    0.7496 C   0  0  0  0  0  0  0  0  0  0  0  0
    3.5691    1.6421    0.8423 C   0  0  0  0  0  0  0  0  0  0  0  0
    3.9515    0.9245    2.1252 C   0  0  0  0  0  0  0  0  0  0  0  0
    4.1513   -0.4231    2.0157 N   0  0  0  0  0  0  0  0  0  0  0  0
    4.0089    1.4755    3.2191 O   0  0  0  0  0  0  0  0  0  0  0  0
    1.2285    0.6784    0.7419 C   0  0  0  0  0  0  0  0  0  0  0  0
    1.4234    0.1397   -0.6392 C   0  0  0  0  0  0  0  0  0  0  0  0
    1.8749   -0.9775   -0.8446 O   0  0  0  0  0  0  0  0  0  0  0  0
    1.0326    1.1574   -1.7502 C   0  0  0  0  0  0  0  0  0  0  0  0
    1.5139    1.1795   -2.9558 N   0  0  0  0  0  0  0  0  0  0  0  0
    2.5519    0.2692   -3.1411 O   0  0  0  0  0  0  0  0  0  0  0  0
   -2.1669   -1.9157    3.1751 H   0  0  0  0  0  0  0  0  0  0  0  0
   -2.5191   -0.5434    4.3020 H   0  0  0  0  0  0  0  0  0  0  0  0
   -3.7984   -1.6926    3.8471 H   0  0  0  0  0  0  0  0  0  0  0  0
   -3.3879    2.1695    2.8315 H   0  0  0  0  0  0  0  0  0  0  0  0
   -2.8844    4.2422    1.8465 H   0  0  0  0  0  0  0  0  0  0  0  0
   -2.6874   -1.9264    0.9571 H   0  0  0  0  0  0  0  0  0  0  0  0
   -2.8716   -2.1507   -0.6576 H   0  0  0  0  0  0  0  0  0  0  0  0
   -1.4860   -2.5103   -3.6532 H   0  0  0  0  0  0  0  0  0  0  0  0
   -0.6848   -2.7979   -0.9356 H   0  0  0  0  0  0  0  0  0  0  0  0
    2.0928   -2.1157   -2.1918 H   0  0  0  0  0  0  0  0  0  0  0  0
    4.0644    2.6193    0.8301 H   0  0  0  0  0  0  0  0  0  0  0  0
    3.9466    1.0824   -0.0245 H   0  0  0  0  0  0  0  0  0  0  0  0
    4.3562   -0.8903    1.1421 H   0  0  0  0  0  0  0  0  0  0  0  0
    4.4569   -0.9012    2.8565 H   0  0  0  0  0  0  0  0  0  0  0  0
    2.7539    0.3633   -4.0951 H   0  0  0  0  0  0  0  0  0  0  0  0
  2  1  1  0  0  0  0
  3  2  1  0  0  0  0
  4  3  2  0  0  0  0
  5  4  1  0  0  0  0
  6  5  1  0  0  0  0
  7  5  2  0  0  0  0
  8  7  1  0  0  0  0
  9  8  2  0  0  0  0
  9  3  1  0  0  0  0
 10  9  1  0  0  0  0
 11 10  1  0  0  0  0
 12 10  2  0  0  0  0
 13 12  1  0  0  0  0
 14 13  2  0  0  0  0
 15 13  1  0  0  0  0
 16 15  1  0  0  0  0
 17 16  1  0  0  0  0
 18 17  2  0  0  0  0
 19 17  2  0  0  0  0
 20 17  1  0  0  0  0
 21 12  1  0  0  0  0
 22 21  2  0  0  0  0
 23 21  1  0  0  0  0
 24 23  2  0  0  0  0
 24  7  1  0  0  0  0
 25 24  1  0  0  0  0
 26 25  1  0  0  0  0
 27 26  1  0  0  0  0
 28 27  1  0  0  0  0
 29 28  1  0  0  0  0
 30 28  2  0  0  0  0
 31 26  2  0  0  0  0
 31  8  1  0  0  0  0
 32 31  1  0  0  0  0
 33 32  2  0  0  0  0
 34 32  1  0  0  0  0
 34 23  1  0  0  0  0
 35 34  2  0  0  0  0
 36 35  1  0  0  0  0
  1 37  1  0  0  0  0
  1 38  1  0  0  0  0
  1 39  1  0  0  0  0
  4 40  1  0  0  0  0
  6 41  1  0  0  0  0
 11 42  1  0  0  0  0
 11 43  1  0  0  0  0
 15 44  1  0  0  0  0
 16 45  1  0  0  0  0
 20 46  1  0  0  0  0
 27 47  1  0  0  0  0
 27 48  1  0  0  0  0
 29 49  1  0  0  0  0
 29 50  1  0  0  0  0
 36 51  1  0  0  0  0
M  END
>  <energy>
196.77101175273842

$$$$
