C#CCN1c2cc(C)c(Cl)cc2S(=O)(=O)NC(=NCCCC)c2ccc1c(N(C)S(=O)(=O)CC)n2
                    3D

 63 65  0  0  0  0  0  0  0  0999 V2000
    5.1412   -1.2371    2.1979 C   0  0  0  0  0  0  0  0  0  0  0  0
    4.2697   -1.5753    1.4490 C   0  0  0  0  0  0  0  0  0  0  0  0
    3.1942   -1.9913    0.5228 C   0  0  0  0  0  0  0  0  0  0  0  0
    2.2346   -0.8884    0.2727 N   0  0  0  0  0  0  0  0  0  0  0  0
    1.5325   -0.4544    1.4467 C   0  0  0  0  0  0  0  0  0  0  0  0
    2.0398    0.7367    2.0252 C   0  0  0  0  0  0  0  0  0  0  0  0
    1.4718    1.3401    3.1649 C   0  0  0  0  0  0  0  0  0  0  0  0
    2.0503    2.6227    3.6914 C   0  0  0  0  0  0  0  0  0  0  0  0
    0.3998    0.6996    3.7796 C   0  0  0  0  0  0  0  0  0  0  0  0
   -0.2939    1.2609    5.2610 Cl  0  0  0  0  0  0  0  0  0  0  0  0
   -0.1477   -0.4538    3.2220 C   0  0  0  0  0  0  0  0  0  0  0  0
    0.3800   -1.0243    2.0434 C   0  0  0  0  0  0  0  0  0  0  0  0
   -0.5040   -2.4909    1.5358 S   0  0  0  0  0  0  0  0  0  0  0  0
   -1.0207   -3.1047    2.7452 O   0  0  0  0  0  0  0  0  0  0  0  0
    0.2953   -3.3059    0.6531 O   0  0  0  0  0  0  0  0  0  0  0  0
   -1.8643   -1.8905    0.7536 N   0  0  0  0  0  0  0  0  0  0  0  0
   -2.1056   -1.6927   -0.6304 C   0  0  0  0  0  0  0  0  0  0  0  0
   -3.3100   -1.9549   -0.9685 N   0  0  0  0  0  0  0  0  0  0  0  0
   -3.7890   -1.8251   -2.3347 C   0  0  0  0  0  0  0  0  0  0  0  0
   -5.3088   -2.0847   -2.3296 C   0  0  0  0  0  0  0  0  0  0  0  0
   -6.1801   -0.9170   -1.8544 C   0  0  0  0  0  0  0  0  0  0  0  0
   -5.8555   -0.4314   -0.4518 C   0  0  0  0  0  0  0  0  0  0  0  0
   -0.9509   -1.2367   -1.4530 C   0  0  0  0  0  0  0  0  0  0  0  0
   -0.0989   -2.2344   -1.8908 C   0  0  0  0  0  0  0  0  0  0  0  0
    1.2533   -2.0226   -1.6569 C   0  0  0  0  0  0  0  0  0  0  0  0
    1.5920   -0.8328   -1.0081 C   0  0  0  0  0  0  0  0  0  0  0  0
    0.7641    0.2635   -1.2760 C   0  0  0  0  0  0  0  0  0  0  0  0
    1.2485    1.6368   -1.1980 N   0  0  0  0  0  0  0  0  0  0  0  0
    0.1883    2.6760   -1.1810 C   0  0  0  0  0  0  0  0  0  0  0  0
    2.5235    1.9537   -2.3168 S   0  0  0  0  0  0  0  0  0  0  0  0
    3.5232    0.9063   -2.2447 O   0  0  0  0  0  0  0  0  0  0  0  0
    1.9210    2.2736   -3.5947 O   0  0  0  0  0  0  0  0  0  0  0  0
    3.3084    3.4526   -1.7056 C   0  0  0  0  0  0  0  0  0  0  0  0
    3.7454    3.3357   -0.2633 C   0  0  0  0  0  0  0  0  0  0  0  0
   -0.5623    0.0587   -1.2878 N   0  0  0  0  0  0  0  0  0  0  0  0
    5.9070   -0.9345    2.8693 H   0  0  0  0  0  0  0  0  0  0  0  0
    2.6865   -2.8768    0.9168 H   0  0  0  0  0  0  0  0  0  0  0  0
    3.6796   -2.2907   -0.4123 H   0  0  0  0  0  0  0  0  0  0  0  0
    2.9046    1.2042    1.5527 H   0  0  0  0  0  0  0  0  0  0  0  0
    1.2660    3.3801    3.8113 H   0  0  0  0  0  0  0  0  0  0  0  0
    2.5476    2.4550    4.6522 H   0  0  0  0  0  0  0  0  0  0  0  0
    2.7835    3.0393    2.9956 H   0  0  0  0  0  0  0  0  0  0  0  0
   -0.9954   -0.9195    3.7326 H   0  0  0  0  0  0  0  0  0  0  0  0
   -2.7116   -2.1614    1.2528 H   0  0  0  0  0  0  0  0  0  0  0  0
   -3.3268   -2.5966   -2.9557 H   0  0  0  0  0  0  0  0  0  0  0  0
   -3.5673   -0.8438   -2.7549 H   0  0  0  0  0  0  0  0  0  0  0  0
   -5.5373   -2.9585   -1.7085 H   0  0  0  0  0  0  0  0  0  0  0  0
   -5.6230   -2.3399   -3.3458 H   0  0  0  0  0  0  0  0  0  0  0  0
   -7.2304   -1.2509   -1.8820 H   0  0  0  0  0  0  0  0  0  0  0  0
   -6.0944   -0.0810   -2.5606 H   0  0  0  0  0  0  0  0  0  0  0  0
   -4.8816    0.0654   -0.4285 H   0  0  0  0  0  0  0  0  0  0  0  0
   -6.6002    0.2972   -0.1152 H   0  0  0  0  0  0  0  0  0  0  0  0
   -5.8429   -1.2652    0.2597 H   0  0  0  0  0  0  0  0  0  0  0  0
   -0.4612   -3.2521   -2.0153 H   0  0  0  0  0  0  0  0  0  0  0  0
    1.8892   -2.8957   -1.6166 H   0  0  0  0  0  0  0  0  0  0  0  0
    0.6092    3.6655   -0.9690 H   0  0  0  0  0  0  0  0  0  0  0  0
   -0.3513    2.7054   -2.1359 H   0  0  0  0  0  0  0  0  0  0  0  0
   -0.5238    2.4612   -0.3694 H   0  0  0  0  0  0  0  0  0  0  0  0
    4.1880    3.6118   -2.3453 H   0  0  0  0  0  0  0  0  0  0  0  0
    2.6246    4.2934   -1.8596 H   0  0  0  0  0  0  0  0  0  0  0  0
    4.3398    2.4274   -0.1121 H   0  0  0  0  0  0  0  0  0  0  0  0
    4.3567    4.1999    0.0233 H   0  0  0  0  0  0  0  0  0  0  0  0
    2.8797    3.2929    0.4024 H   0  0  0  0  0  0  0  0  0  0  0  0
  2  1  3  0  0  0  0
  3  2  1  0  0  0  0
  4  3  1  0  0  0  0
  5  4  1  0  0  0  0
  6  5  2  0  0  0  0
  7  6  1  0  0  0  0
  8  7  1  0  0  0  0
  9  7  2  0  0  0  0
 10  9  1  0  0  0  0
 11  9  1  0  0  0  0
 12 11  2  0  0  0  0
 12  5  1  0  0  0  0
 13 12  1  0  0  0  0
 14 13  2  0  0  0  0
 15 13  2  0  0  0  0
 16 13  1  0  0  0  0
 17 16  1  0  0  0  0
 18 17  2  0  0  0  0
 19 18  1  0  0  0  0
 20 19  1  0  0  0  0
 21 20  1  0  0  0  0
 22 21  1  0  0  0  0
 23 17  1  0  0  0  0
 24 23  2  0  0  0  0
 25 24  1  0  0  0  0
 26 25  2  0  0  0  0
 26  4  1  0  0  0  0
 27 26  1  0  0  0  0
 28 27  1  0  0  0  0
 29 28  1  0  0  0  0
 30 28  1  0  0  0  0
 31 30  2  0  0  0  0
 32 30  2  0  0  0  0
 33 30  1  0  0  0  0
 34 33  1  0  0  0  0
 35 27  2  0  0  0  0
 35 23  1  0  0  0  0
  1 36  1  0  0  0  0
  3 37  1  0  0  0  0
  3 38  1  0  0  0  0
  6 39  1  0  0  0  0
  8 40  1  0  0  0  0
  8 41  1  0  0  0  0
  8 42  1  0  0  0  0
 11 43  1  0  0  0  0
 16 44  1  0  0  0  0
 19 45  1  0  0  0  0
 19 46  1  0  0  0  0
 20 47  1  0  0  0  0
 20 48  1  0  0  0  0
 21 49  1  0  0  0  0
 21 50  1  0  0  0  0
 22 51  1  0  0  0  0
 22 52  1  0  0  0  0
 22 53  1  0  0  0  0
 24 54  1  0  0  0  0
 25 55  1  0  0  0  0
 29 56  1  0  0  0  0
 29 57  1  0  0  0  0
 29 58  1  0  0  0  0
 33 59  1  0  0  0  0
 33 60  1  0  0  0  0
 34 61  1  0  0  0  0
 34 62  1  0  0  0  0
 34 63  1  0  0  0  0
M  END
>  <energy>
8.2119923166895319

$$$$
