CC(C)(NC(=O)OC1C2CCC3CC1C3C2)C(=O)NC1CC2C(O)C3CC1C23
                    3D

 60 65  0  0  0  0  0  0  0  0999 V2000
   -0.0003    0.1657   -0.7749 C   0  0  0  0  0  0  0  0  0  0  0  0
    0.6063   -1.1090   -0.1544 C   0  0  0  0  0  0  0  0  0  0  0  0
    0.5700   -1.0238    1.3806 C   0  0  0  0  0  0  0  0  0  0  0  0
   -0.1412   -2.2562   -0.6878 N   0  0  0  0  0  0  0  0  0  0  0  0
   -1.3755   -2.5536   -0.1783 C   0  0  0  0  0  0  0  0  0  0  0  0
   -1.6184   -2.8298    0.9840 O   0  0  0  0  0  0  0  0  0  0  0  0
   -2.2873   -2.3886   -1.1546 O   0  0  0  0  0  0  0  0  0  0  0  0
   -3.6887   -2.4616   -0.8357 C   0  0  0  0  0  0  0  0  0  0  0  0
   -4.4981   -1.7222   -1.9266 C   0  0  0  0  0  0  0  0  0  0  0  0
   -3.9444   -0.3082   -2.2275 C   0  0  0  0  0  0  0  0  0  0  0  0
   -4.4311    0.7819   -1.2634 C   0  0  0  0  0  0  0  0  0  0  0  0
   -4.7885    0.2443    0.1213 C   0  0  0  0  0  0  0  0  0  0  0  0
   -3.6621   -0.4034    0.9450 C   0  0  0  0  0  0  0  0  0  0  0  0
   -4.1500   -1.7948    0.4726 C   0  0  0  0  0  0  0  0  0  0  0  0
   -5.5142   -1.1317    0.1187 C   0  0  0  0  0  0  0  0  0  0  0  0
   -5.8773   -1.6292   -1.2736 C   0  0  0  0  0  0  0  0  0  0  0  0
    2.1248   -1.2573   -0.5101 C   0  0  0  0  0  0  0  0  0  0  0  0
    2.7038   -2.3371   -0.5560 O   0  0  0  0  0  0  0  0  0  0  0  0
    2.8046   -0.0598   -0.6010 N   0  0  0  0  0  0  0  0  0  0  0  0
    4.2153    0.0838   -0.2806 C   0  0  0  0  0  0  0  0  0  0  0  0
    4.5307   -0.1028    1.2786 C   0  0  0  0  0  0  0  0  0  0  0  0
    5.1218    1.2385    1.8035 C   0  0  0  0  0  0  0  0  0  0  0  0
    4.7511    2.7656    2.3172 C   0  0  0  0  0  0  0  0  0  0  0  0
    5.7338    3.3412    3.2017 O   0  0  0  0  0  0  0  0  0  0  0  0
    4.9100    3.1983    0.7947 C   0  0  0  0  0  0  0  0  0  0  0  0
    4.0961    3.1024   -0.5586 C   0  0  0  0  0  0  0  0  0  0  0  0
    4.5767    1.5491   -0.6292 C   0  0  0  0  0  0  0  0  0  0  0  0
    4.2144    1.8157    0.7895 C   0  0  0  0  0  0  0  0  0  0  0  0
    0.3686    1.0836   -0.3086 H   0  0  0  0  0  0  0  0  0  0  0  0
   -1.0852    0.1941   -0.6768 H   0  0  0  0  0  0  0  0  0  0  0  0
    0.2154    0.2197   -1.8476 H   0  0  0  0  0  0  0  0  0  0  0  0
    0.8763   -1.9762    1.8287 H   0  0  0  0  0  0  0  0  0  0  0  0
    1.2478   -0.2556    1.7648 H   0  0  0  0  0  0  0  0  0  0  0  0
   -0.4280   -0.7804    1.7550 H   0  0  0  0  0  0  0  0  0  0  0  0
   -0.1596   -2.2728   -1.6978 H   0  0  0  0  0  0  0  0  0  0  0  0
   -3.9752   -3.5212   -0.8370 H   0  0  0  0  0  0  0  0  0  0  0  0
   -4.5070   -2.3049   -2.8550 H   0  0  0  0  0  0  0  0  0  0  0  0
   -2.8508   -0.3168   -2.2567 H   0  0  0  0  0  0  0  0  0  0  0  0
   -4.2512   -0.0197   -3.2407 H   0  0  0  0  0  0  0  0  0  0  0  0
   -3.6823    1.5794   -1.1904 H   0  0  0  0  0  0  0  0  0  0  0  0
   -5.3280    1.2467   -1.6975 H   0  0  0  0  0  0  0  0  0  0  0  0
   -5.3186    1.0179    0.6906 H   0  0  0  0  0  0  0  0  0  0  0  0
   -3.7833   -0.2561    2.0259 H   0  0  0  0  0  0  0  0  0  0  0  0
   -2.6462   -0.1174    0.6857 H   0  0  0  0  0  0  0  0  0  0  0  0
   -4.2075   -2.5233    1.2902 H   0  0  0  0  0  0  0  0  0  0  0  0
   -6.2866   -1.2308    0.8867 H   0  0  0  0  0  0  0  0  0  0  0  0
   -6.5544   -0.9474   -1.7969 H   0  0  0  0  0  0  0  0  0  0  0  0
   -6.3553   -2.6132   -1.2209 H   0  0  0  0  0  0  0  0  0  0  0  0
    2.2739    0.7959   -0.6778 H   0  0  0  0  0  0  0  0  0  0  0  0
    4.7849   -0.6410   -0.8742 H   0  0  0  0  0  0  0  0  0  0  0  0
    3.6412   -0.3900    1.8551 H   0  0  0  0  0  0  0  0  0  0  0  0
    5.2639   -0.9105    1.4032 H   0  0  0  0  0  0  0  0  0  0  0  0
    6.1972    1.1897    1.5763 H   0  0  0  0  0  0  0  0  0  0  0  0
    3.7543    2.8938    2.7694 H   0  0  0  0  0  0  0  0  0  0  0  0
    5.5341    4.2950    3.2151 H   0  0  0  0  0  0  0  0  0  0  0  0
    5.9795    3.2821    0.5573 H   0  0  0  0  0  0  0  0  0  0  0  0
    4.5104    3.7192   -1.3638 H   0  0  0  0  0  0  0  0  0  0  0  0
    3.0122    3.2937   -0.5281 H   0  0  0  0  0  0  0  0  0  0  0  0
    5.6457    1.5271   -0.8879 H   0  0  0  0  0  0  0  0  0  0  0  0
    3.1315    1.8222    1.0586 H   0  0  0  0  0  0  0  0  0  0  0  0
  2  1  1  0  0  0  0
  3  2  1  0  0  0  0
  4  2  1  0  0  0  0
  5  4  1  0  0  0  0
  6  5  2  0  0  0  0
  7  5  1  0  0  0  0
  8  7  1  0  0  0  0
  9  8  1  0  0  0  0
 10  9  1  0  0  0  0
 11 10  1  0  0  0  0
 12 11  1  0  0  0  0
 13 12  1  0  0  0  0
 14 13  1  0  0  0  0
 14  8  1  0  0  0  0
 15 14  1  0  0  0  0
 15 12  1  0  0  0  0
 16 15  1  0  0  0  0
 16  9  1  0  0  0  0
 17  2  1  0  0  0  0
 18 17  2  0  0  0  0
 19 17  1  0  0  0  0
 20 19  1  0  0  0  0
 21 20  1  0  0  0  0
 22 21  1  0  0  0  0
 23 22  1  0  0  0  0
 24 23  1  0  0  0  0
 25 23  1  0  0  0  0
 26 25  1  0  0  0  0
 27 26  1  0  0  0  0
 27 20  1  0  0  0  0
 28 27  1  0  0  0  0
 28 22  1  0  0  0  0
 28 25  1  0  0  0  0
  1 29  1  0  0  0  0
  1 30  1  0  0  0  0
  1 31  1  0  0  0  0
  3 32  1  0  0  0  0
  3 33  1  0  0  0  0
  3 34  1  0  0  0  0
  4 35  1  0  0  0  0
  8 36  1  0  0  0  0
  9 37  1  0  0  0  0
 10 38  1  0  0  0  0
 10 39  1  0  0  0  0
 11 40  1  0  0  0  0
 11 41  1  0  0  0  0
 12 42  1  0  0  0  0
 13 43  1  0  0  0  0
 13 44  1  0  0  0  0
 14 45  1  0  0  0  0
 15 46  1  0  0  0  0
 16 47  1  0  0  0  0
 16 48  1  0  0  0  0
 19 49  1  0  0  0  0
 20 50  1  0  0  0  0
 21 51  1  0  0  0  0
 21 52  1  0  0  0  0
 22 53  1  0  0  0  0
 23 54  1  0  0  0  0
 24 55  1  0  0  0  0
 25 56  1  0  0  0  0
 26 57  1  0  0  0  0
 26 58  1  0  0  0  0
 27 59  1  0  0  0  0
 28 60  1  0  0  0  0
M  END
>  <energy>
148.35729943413665

$$$$
