C=C(C)C1C=C(C(=O)OC)CC2(C(C)=O)C3CC=C4C5(CCC12C)C(OC)OC4(C3OC(C)=O)C5OC
                    3D

 75 79  0  0  0  0  0  0  0  0999 V2000
   -4.6451   -0.8606    1.4684 C   0  0  0  0  0  0  0  0  0  0  0  0
   -3.5997   -0.0843    1.8130 C   0  0  0  0  0  0  0  0  0  0  0  0
   -3.3754    0.2792    3.2569 C   0  0  0  0  0  0  0  0  0  0  0  0
   -2.6325    0.5217    0.7836 C   0  0  0  0  0  0  0  0  0  0  0  0
   -3.3920    1.1127   -0.3735 C   0  0  0  0  0  0  0  0  0  0  0  0
   -2.8327    1.2927   -1.5686 C   0  0  0  0  0  0  0  0  0  0  0  0
   -3.5812    1.9741   -2.6393 C   0  0  0  0  0  0  0  0  0  0  0  0
   -4.0989    1.3294   -3.5429 O   0  0  0  0  0  0  0  0  0  0  0  0
   -3.6208    3.3294   -2.5935 O   0  0  0  0  0  0  0  0  0  0  0  0
   -2.8186    4.0906   -1.6765 C   0  0  0  0  0  0  0  0  0  0  0  0
   -1.4555    0.8342   -1.8732 C   0  0  0  0  0  0  0  0  0  0  0  0
   -0.9679   -0.5006   -1.1698 C   0  0  0  0  0  0  0  0  0  0  0  0
   -2.0088   -1.5376   -1.7907 C   0  0  0  0  0  0  0  0  0  0  0  0
   -1.9151   -1.9359   -3.2512 C   0  0  0  0  0  0  0  0  0  0  0  0
   -2.9527   -2.0106   -1.1566 O   0  0  0  0  0  0  0  0  0  0  0  0
    0.5609   -0.9813   -1.7977 C   0  0  0  0  0  0  0  0  0  0  0  0
    1.1724    0.1397   -2.6834 C   0  0  0  0  0  0  0  0  0  0  0  0
    1.4469    1.2143   -1.6911 C   0  0  0  0  0  0  0  0  0  0  0  0
    1.8802    0.8062   -0.4856 C   0  0  0  0  0  0  0  0  0  0  0  0
    2.2735    1.3770    0.9099 C   0  0  0  0  0  0  0  0  0  0  0  0
    0.7102    1.6877    1.2013 C   0  0  0  0  0  0  0  0  0  0  0  0
   -0.1704    0.3767    1.4105 C   0  0  0  0  0  0  0  0  0  0  0  0
   -1.2595   -0.3097    0.4613 C   0  0  0  0  0  0  0  0  0  0  0  0
   -1.3855   -1.7485    1.1064 C   0  0  0  0  0  0  0  0  0  0  0  0
    2.6058    0.3255    2.0484 C   0  0  0  0  0  0  0  0  0  0  0  0
    3.8764    0.6039    2.6336 O   0  0  0  0  0  0  0  0  0  0  0  0
    4.2844   -0.4344    3.5147 C   0  0  0  0  0  0  0  0  0  0  0  0
    2.5138   -0.8962    1.3173 O   0  0  0  0  0  0  0  0  0  0  0  0
    2.5682   -0.5277   -0.1018 C   0  0  0  0  0  0  0  0  0  0  0  0
    1.8197   -1.5690   -0.9781 C   0  0  0  0  0  0  0  0  0  0  0  0
    1.3594   -2.7035   -0.2196 O   0  0  0  0  0  0  0  0  0  0  0  0
    2.3354   -3.5382    0.2290 C   0  0  0  0  0  0  0  0  0  0  0  0
    1.7459   -4.6068    1.0948 C   0  0  0  0  0  0  0  0  0  0  0  0
    3.5295   -3.4306   -0.0199 O   0  0  0  0  0  0  0  0  0  0  0  0
    3.6874    0.7333   -0.0467 C   0  0  0  0  0  0  0  0  0  0  0  0
    4.1377    1.4806   -1.2285 O   0  0  0  0  0  0  0  0  0  0  0  0
    4.6744    2.7676   -0.9418 C   0  0  0  0  0  0  0  0  0  0  0  0
   -4.8289   -1.1442    0.4307 H   0  0  0  0  0  0  0  0  0  0  0  0
   -5.3330   -1.2703    2.1998 H   0  0  0  0  0  0  0  0  0  0  0  0
   -4.1715   -0.1034    3.9047 H   0  0  0  0  0  0  0  0  0  0  0  0
   -3.3509    1.3684    3.3812 H   0  0  0  0  0  0  0  0  0  0  0  0
   -2.4333   -0.1375    3.6228 H   0  0  0  0  0  0  0  0  0  0  0  0
   -2.2997    1.4553    1.2644 H   0  0  0  0  0  0  0  0  0  0  0  0
   -4.4002    1.4791   -0.1849 H   0  0  0  0  0  0  0  0  0  0  0  0
   -2.9916    5.1517   -1.8818 H   0  0  0  0  0  0  0  0  0  0  0  0
   -3.1191    3.8972   -0.6438 H   0  0  0  0  0  0  0  0  0  0  0  0
   -1.7546    3.8856   -1.8310 H   0  0  0  0  0  0  0  0  0  0  0  0
   -1.3896    0.7498   -2.9609 H   0  0  0  0  0  0  0  0  0  0  0  0
   -0.8365    1.6757   -1.5706 H   0  0  0  0  0  0  0  0  0  0  0  0
   -1.4250   -1.1800   -3.8616 H   0  0  0  0  0  0  0  0  0  0  0  0
   -2.9276   -2.0638   -3.6451 H   0  0  0  0  0  0  0  0  0  0  0  0
   -1.3847   -2.8864   -3.3367 H   0  0  0  0  0  0  0  0  0  0  0  0
    0.3466   -1.8174   -2.4707 H   0  0  0  0  0  0  0  0  0  0  0  0
    2.1048   -0.1781   -3.1700 H   0  0  0  0  0  0  0  0  0  0  0  0
    0.5091    0.4618   -3.4865 H   0  0  0  0  0  0  0  0  0  0  0  0
    1.2315    2.2571   -1.8956 H   0  0  0  0  0  0  0  0  0  0  0  0
    0.2570    2.3722    0.4713 H   0  0  0  0  0  0  0  0  0  0  0  0
    0.6982    2.2444    2.1510 H   0  0  0  0  0  0  0  0  0  0  0  0
    0.4575   -0.4558    1.7009 H   0  0  0  0  0  0  0  0  0  0  0  0
   -0.6860    0.5880    2.3586 H   0  0  0  0  0  0  0  0  0  0  0  0
   -0.6246   -2.4228    0.7267 H   0  0  0  0  0  0  0  0  0  0  0  0
   -2.3386   -2.2436    0.9280 H   0  0  0  0  0  0  0  0  0  0  0  0
   -1.2742   -1.7268    2.1982 H   0  0  0  0  0  0  0  0  0  0  0  0
    1.8858    0.3322    2.8733 H   0  0  0  0  0  0  0  0  0  0  0  0
    3.4927   -0.6753    4.2320 H   0  0  0  0  0  0  0  0  0  0  0  0
    5.1643   -0.0880    4.0629 H   0  0  0  0  0  0  0  0  0  0  0  0
    4.5624   -1.3236    2.9408 H   0  0  0  0  0  0  0  0  0  0  0  0
    2.5296   -1.9410   -1.7321 H   0  0  0  0  0  0  0  0  0  0  0  0
    2.5053   -5.3655    1.2954 H   0  0  0  0  0  0  0  0  0  0  0  0
    0.9107   -5.0894    0.5829 H   0  0  0  0  0  0  0  0  0  0  0  0
    1.4113   -4.1785    2.0422 H   0  0  0  0  0  0  0  0  0  0  0  0
    4.5894    0.4614    0.5144 H   0  0  0  0  0  0  0  0  0  0  0  0
    5.4156    2.7055   -0.1388 H   0  0  0  0  0  0  0  0  0  0  0  0
    3.8703    3.4502   -0.6488 H   0  0  0  0  0  0  0  0  0  0  0  0
    5.1573    3.1551   -1.8428 H   0  0  0  0  0  0  0  0  0  0  0  0
  2  1  2  0  0  0  0
  3  2  1  0  0  0  0
  4  2  1  0  0  0  0
  5  4  1  0  0  0  0
  6  5  2  0  0  0  0
  7  6  1  0  0  0  0
  8  7  2  0  0  0  0
  9  7  1  0  0  0  0
 10  9  1  0  0  0  0
 11  6  1  0  0  0  0
 12 11  1  0  0  0  0
 13 12  1  0  0  0  0
 14 13  1  0  0  0  0
 15 13  2  0  0  0  0
 16 12  1  0  0  0  0
 17 16  1  0  0  0  0
 18 17  1  0  0  0  0
 19 18  2  0  0  0  0
 20 19  1  0  0  0  0
 21 20  1  0  0  0  0
 22 21  1  0  0  0  0
 23 22  1  0  0  0  0
 23  4  1  0  0  0  0
 23 12  1  0  0  0  0
 24 23  1  0  0  0  0
 25 20  1  0  0  0  0
 26 25  1  0  0  0  0
 27 26  1  0  0  0  0
 28 25  1  0  0  0  0
 29 28  1  0  0  0  0
 29 19  1  0  0  0  0
 30 29  1  0  0  0  0
 30 16  1  0  0  0  0
 31 30  1  0  0  0  0
 32 31  1  0  0  0  0
 33 32  1  0  0  0  0
 34 32  2  0  0  0  0
 35 29  1  0  0  0  0
 35 20  1  0  0  0  0
 36 35  1  0  0  0  0
 37 36  1  0  0  0  0
  1 38  1  0  0  0  0
  1 39  1  0  0  0  0
  3 40  1  0  0  0  0
  3 41  1  0  0  0  0
  3 42  1  0  0  0  0
  4 43  1  0  0  0  0
  5 44  1  0  0  0  0
 10 45  1  0  0  0  0
 10 46  1  0  0  0  0
 10 47  1  0  0  0  0
 11 48  1  0  0  0  0
 11 49  1  0  0  0  0
 14 50  1  0  0  0  0
 14 51  1  0  0  0  0
 14 52  1  0  0  0  0
 16 53  1  0  0  0  0
 17 54  1  0  0  0  0
 17 55  1  0  0  0  0
 18 56  1  0  0  0  0
 21 57  1  0  0  0  0
 21 58  1  0  0  0  0
 22 59  1  0  0  0  0
 22 60  1  0  0  0  0
 24 61  1  0  0  0  0
 24 62  1  0  0  0  0
 24 63  1  0  0  0  0
 25 64  1  0  0  0  0
 27 65  1  0  0  0  0
 27 66  1  0  0  0  0
 27 67  1  0  0  0  0
 30 68  1  0  0  0  0
 33 69  1  0  0  0  0
 33 70  1  0  0  0  0
 33 71  1  0  0  0  0
 35 72  1  0  0  0  0
 37 73  1  0  0  0  0
 37 74  1  0  0  0  0
 37 75  1  0  0  0  0
M  END
>  <energy>
325.52714192749619

$$$$
