C=CC1(C)Cc2c(O)oc(O)c2C2(OC)OCC34C=CC(OC)(C3C3C=C(C(C)C)COC3)C24C1
                    3D

 71 76  0  0  0  0  0  0  0  0999 V2000
    3.5865   -0.5405   -4.5555 C   0  0  0  0  0  0  0  0  0  0  0  0
    3.5079   -0.6849   -3.2243 C   0  0  0  0  0  0  0  0  0  0  0  0
    2.2577   -0.6579   -2.3136 C   0  0  0  0  0  0  0  0  0  0  0  0
    0.9678   -0.5850   -3.1481 C   0  0  0  0  0  0  0  0  0  0  0  0
    2.2677   -2.0148   -1.5575 C   0  0  0  0  0  0  0  0  0  0  0  0
    1.1860   -2.2130   -0.5422 C   0  0  0  0  0  0  0  0  0  0  0  0
    0.2906   -3.2491   -0.4339 C   0  0  0  0  0  0  0  0  0  0  0  0
    0.0289   -4.3237   -1.1488 O   0  0  0  0  0  0  0  0  0  0  0  0
   -0.4454   -3.1486    0.7013 O   0  0  0  0  0  0  0  0  0  0  0  0
   -0.0252   -2.0191    1.3246 C   0  0  0  0  0  0  0  0  0  0  0  0
   -0.6016   -1.8157    2.4924 O   0  0  0  0  0  0  0  0  0  0  0  0
    0.9406   -1.3728    0.5977 C   0  0  0  0  0  0  0  0  0  0  0  0
    1.7352   -0.1504    0.8858 C   0  0  0  0  0  0  0  0  0  0  0  0
    3.1517   -0.4824    0.8435 O   0  0  0  0  0  0  0  0  0  0  0  0
    3.5940   -1.3868    1.8499 C   0  0  0  0  0  0  0  0  0  0  0  0
    1.5337    0.4738    2.1666 O   0  0  0  0  0  0  0  0  0  0  0  0
    2.0672    1.7944    2.0237 C   0  0  0  0  0  0  0  0  0  0  0  0
    1.5122    2.1796    0.7077 C   0  0  0  0  0  0  0  0  0  0  0  0
    1.9317    3.3396   -0.1388 C   0  0  0  0  0  0  0  0  0  0  0  0
    1.0995    3.2158   -1.1948 C   0  0  0  0  0  0  0  0  0  0  0  0
    0.2750    1.9611   -0.8388 C   0  0  0  0  0  0  0  0  0  0  0  0
   -0.6654    1.4479   -1.7888 O   0  0  0  0  0  0  0  0  0  0  0  0
   -1.6888    2.3125   -2.2562 C   0  0  0  0  0  0  0  0  0  0  0  0
   -0.1148    2.2634    0.6475 C   0  0  0  0  0  0  0  0  0  0  0  0
   -1.3551    1.8376    1.4435 C   0  0  0  0  0  0  0  0  0  0  0  0
   -2.1932    0.7241    0.9088 C   0  0  0  0  0  0  0  0  0  0  0  0
   -3.1248    0.1556    1.7054 C   0  0  0  0  0  0  0  0  0  0  0  0
   -4.2068   -0.7871    1.1899 C   0  0  0  0  0  0  0  0  0  0  0  0
   -4.5449   -0.6094   -0.2982 C   0  0  0  0  0  0  0  0  0  0  0  0
   -3.8673   -2.2486    1.4670 C   0  0  0  0  0  0  0  0  0  0  0  0
   -3.1953    0.4944    3.1894 C   0  0  0  0  0  0  0  0  0  0  0  0
   -2.4536    1.6644    3.5617 O   0  0  0  0  0  0  0  0  0  0  0  0
   -1.1568    1.7001    2.9491 C   0  0  0  0  0  0  0  0  0  0  0  0
    1.4489    0.9039   -0.2503 C   0  0  0  0  0  0  0  0  0  0  0  0
    2.4563    0.6363   -1.4452 C   0  0  0  0  0  0  0  0  0  0  0  0
    4.5562   -0.5765   -5.0479 H   0  0  0  0  0  0  0  0  0  0  0  0
    2.7194   -0.3754   -5.1839 H   0  0  0  0  0  0  0  0  0  0  0  0
    4.4482   -0.8338   -2.6865 H   0  0  0  0  0  0  0  0  0  0  0  0
    0.9257   -1.3892   -3.8929 H   0  0  0  0  0  0  0  0  0  0  0  0
    0.0718   -0.7038   -2.5319 H   0  0  0  0  0  0  0  0  0  0  0  0
    0.8864    0.3662   -3.6865 H   0  0  0  0  0  0  0  0  0  0  0  0
    3.2330   -2.1513   -1.0493 H   0  0  0  0  0  0  0  0  0  0  0  0
    2.2166   -2.8381   -2.2868 H   0  0  0  0  0  0  0  0  0  0  0  0
   -0.6589   -4.7767   -0.6358 H   0  0  0  0  0  0  0  0  0  0  0  0
   -1.2207   -2.5600    2.5758 H   0  0  0  0  0  0  0  0  0  0  0  0
    3.5781   -0.9123    2.8332 H   0  0  0  0  0  0  0  0  0  0  0  0
    3.0119   -2.3119    1.8644 H   0  0  0  0  0  0  0  0  0  0  0  0
    4.6296   -1.6539    1.6198 H   0  0  0  0  0  0  0  0  0  0  0  0
    3.1597    1.7677    2.0476 H   0  0  0  0  0  0  0  0  0  0  0  0
    1.7213    2.4241    2.8462 H   0  0  0  0  0  0  0  0  0  0  0  0
    2.6856    4.0811    0.0400 H   0  0  0  0  0  0  0  0  0  0  0  0
    1.0284    3.8255   -2.0780 H   0  0  0  0  0  0  0  0  0  0  0  0
   -1.2773    3.0239   -2.9765 H   0  0  0  0  0  0  0  0  0  0  0  0
   -2.4468    1.7023   -2.7618 H   0  0  0  0  0  0  0  0  0  0  0  0
   -2.1554    2.8380   -1.4205 H   0  0  0  0  0  0  0  0  0  0  0  0
   -0.3270    3.3532    0.7594 H   0  0  0  0  0  0  0  0  0  0  0  0
   -2.0562    2.6843    1.3276 H   0  0  0  0  0  0  0  0  0  0  0  0
   -2.1495    0.4809   -0.1424 H   0  0  0  0  0  0  0  0  0  0  0  0
   -5.1320   -0.5515    1.7338 H   0  0  0  0  0  0  0  0  0  0  0  0
   -4.7382    0.4431   -0.5371 H   0  0  0  0  0  0  0  0  0  0  0  0
   -3.7384   -0.9661   -0.9482 H   0  0  0  0  0  0  0  0  0  0  0  0
   -5.4473   -1.1747   -0.5593 H   0  0  0  0  0  0  0  0  0  0  0  0
   -2.9578   -2.5464    0.9411 H   0  0  0  0  0  0  0  0  0  0  0  0
   -4.6722   -2.9068    1.1231 H   0  0  0  0  0  0  0  0  0  0  0  0
   -3.7213   -2.4305    2.5371 H   0  0  0  0  0  0  0  0  0  0  0  0
   -4.2328    0.6855    3.4848 H   0  0  0  0  0  0  0  0  0  0  0  0
   -2.8320   -0.3494    3.7888 H   0  0  0  0  0  0  0  0  0  0  0  0
   -0.6056    0.8027    3.2420 H   0  0  0  0  0  0  0  0  0  0  0  0
   -0.6305    2.5696    3.3569 H   0  0  0  0  0  0  0  0  0  0  0  0
    2.4435    1.4719   -2.1574 H   0  0  0  0  0  0  0  0  0  0  0  0
    3.4842    0.6736   -1.0591 H   0  0  0  0  0  0  0  0  0  0  0  0
  2  1  2  0  0  0  0
  3  2  1  0  0  0  0
  4  3  1  0  0  0  0
  5  3  1  0  0  0  0
  6  5  1  0  0  0  0
  7  6  2  0  0  0  0
  8  7  1  0  0  0  0
  9  7  1  0  0  0  0
 10  9  1  0  0  0  0
 11 10  1  0  0  0  0
 12 10  2  0  0  0  0
 12  6  1  0  0  0  0
 13 12  1  0  0  0  0
 14 13  1  0  0  0  0
 15 14  1  0  0  0  0
 16 13  1  0  0  0  0
 17 16  1  0  0  0  0
 18 17  1  0  0  0  0
 19 18  1  0  0  0  0
 20 19  2  0  0  0  0
 21 20  1  0  0  0  0
 22 21  1  0  0  0  0
 23 22  1  0  0  0  0
 24 21  1  0  0  0  0
 24 18  1  0  0  0  0
 25 24  1  0  0  0  0
 26 25  1  0  0  0  0
 27 26  2  0  0  0  0
 28 27  1  0  0  0  0
 29 28  1  0  0  0  0
 30 28  1  0  0  0  0
 31 27  1  0  0  0  0
 32 31  1  0  0  0  0
 33 32  1  0  0  0  0
 33 25  1  0  0  0  0
 34 21  1  0  0  0  0
 34 13  1  0  0  0  0
 34 18  1  0  0  0  0
 35 34  1  0  0  0  0
 35  3  1  0  0  0  0
  1 36  1  0  0  0  0
  1 37  1  0  0  0  0
  2 38  1  0  0  0  0
  4 39  1  0  0  0  0
  4 40  1  0  0  0  0
  4 41  1  0  0  0  0
  5 42  1  0  0  0  0
  5 43  1  0  0  0  0
  8 44  1  0  0  0  0
 11 45  1  0  0  0  0
 15 46  1  0  0  0  0
 15 47  1  0  0  0  0
 15 48  1  0  0  0  0
 17 49  1  0  0  0  0
 17 50  1  0  0  0  0
 19 51  1  0  0  0  0
 20 52  1  0  0  0  0
 23 53  1  0  0  0  0
 23 54  1  0  0  0  0
 23 55  1  0  0  0  0
 24 56  1  0  0  0  0
 25 57  1  0  0  0  0
 26 58  1  0  0  0  0
 28 59  1  0  0  0  0
 29 60  1  0  0  0  0
 29 61  1  0  0  0  0
 29 62  1  0  0  0  0
 30 63  1  0  0  0  0
 30 64  1  0  0  0  0
 30 65  1  0  0  0  0
 31 66  1  0  0  0  0
 31 67  1  0  0  0  0
 33 68  1  0  0  0  0
 33 69  1  0  0  0  0
 35 70  1  0  0  0  0
 35 71  1  0  0  0  0
M  END
>  <energy>
111.11679432684656

$$$$
