Cn1c(=O)ccc2nc3c(=N)n(c21)N(CCCc1cn(CCc2cn4c(=N)nn[nH]c4n2)nn1)CCN3
                    3D

 62 67  0  0  0  0  0  0  0  0999 V2000
    1.7814    1.6538    2.3849 C   0  0  0  0  0  0  0  0  0  0  0  0
    3.0952    1.1168    2.0729 N   0  0  0  0  0  0  0  0  0  0  0  0
    4.0145    1.0086    3.1130 C   0  0  0  0  0  0  0  0  0  0  0  0
    3.7615    1.2242    4.2970 O   0  0  0  0  0  0  0  0  0  0  0  0
    5.3939    0.6112    2.7409 C   0  0  0  0  0  0  0  0  0  0  0  0
    5.7173    0.4182    1.4580 C   0  0  0  0  0  0  0  0  0  0  0  0
    4.7301    0.5544    0.4246 C   0  0  0  0  0  0  0  0  0  0  0  0
    5.1801    0.3142   -0.8709 N   0  0  0  0  0  0  0  0  0  0  0  0
    4.3637    0.7259   -1.8028 C   0  0  0  0  0  0  0  0  0  0  0  0
    3.1226    1.5224   -1.3869 C   0  0  0  0  0  0  0  0  0  0  0  0
    2.7891    2.5840   -2.0410 N   0  0  0  0  0  0  0  0  0  0  0  0
    2.4874    0.8547   -0.3423 N   0  0  0  0  0  0  0  0  0  0  0  0
    3.4259    0.8166    0.7475 C   0  0  0  0  0  0  0  0  0  0  0  0
    2.2247   -0.5809   -0.8046 N   0  0  0  0  0  0  0  0  0  0  0  0
    1.2253   -1.2368    0.0346 C   0  0  0  0  0  0  0  0  0  0  0  0
    1.7083   -2.6632    0.3713 C   0  0  0  0  0  0  0  0  0  0  0  0
    0.8665   -3.3571    1.4569 C   0  0  0  0  0  0  0  0  0  0  0  0
   -0.5795   -3.2875    1.1449 C   0  0  0  0  0  0  0  0  0  0  0  0
   -1.5195   -2.4278    1.6676 C   0  0  0  0  0  0  0  0  0  0  0  0
   -2.4979   -2.4244    0.7096 N   0  0  0  0  0  0  0  0  0  0  0  0
   -3.1879   -1.2305    0.2917 C   0  0  0  0  0  0  0  0  0  0  0  0
   -4.6913   -1.3403    0.0808 C   0  0  0  0  0  0  0  0  0  0  0  0
   -5.2148    0.0142   -0.2768 C   0  0  0  0  0  0  0  0  0  0  0  0
   -4.6676    0.9279   -1.1660 C   0  0  0  0  0  0  0  0  0  0  0  0
   -5.3457    2.0898   -0.9275 N   0  0  0  0  0  0  0  0  0  0  0  0
   -5.2073    3.3922   -1.3801 C   0  0  0  0  0  0  0  0  0  0  0  0
   -4.2609    3.7357   -2.1958 N   0  0  0  0  0  0  0  0  0  0  0  0
   -6.0868    4.3692   -0.9638 N   0  0  0  0  0  0  0  0  0  0  0  0
   -7.0092    4.0873   -0.1523 N   0  0  0  0  0  0  0  0  0  0  0  0
   -7.1258    2.8292    0.3538 N   0  0  0  0  0  0  0  0  0  0  0  0
   -6.3134    1.8105   -0.0220 C   0  0  0  0  0  0  0  0  0  0  0  0
   -6.2912    0.5662    0.3839 N   0  0  0  0  0  0  0  0  0  0  0  0
   -2.3050   -3.4152   -0.1794 N   0  0  0  0  0  0  0  0  0  0  0  0
   -1.1125   -3.9407    0.0674 N   0  0  0  0  0  0  0  0  0  0  0  0
    1.9964   -0.7329   -2.2725 C   0  0  0  0  0  0  0  0  0  0  0  0
    3.3038   -0.9053   -3.1435 C   0  0  0  0  0  0  0  0  0  0  0  0
    4.2667    0.2356   -3.0903 N   0  0  0  0  0  0  0  0  0  0  0  0
    1.4509    2.3355    1.5945 H   0  0  0  0  0  0  0  0  0  0  0  0
    1.7995    2.2203    3.3213 H   0  0  0  0  0  0  0  0  0  0  0  0
    1.0691    0.8339    2.4971 H   0  0  0  0  0  0  0  0  0  0  0  0
    6.1086    0.5062    3.5463 H   0  0  0  0  0  0  0  0  0  0  0  0
    6.7206    0.1280    1.1675 H   0  0  0  0  0  0  0  0  0  0  0  0
    1.9414    2.9653   -1.6094 H   0  0  0  0  0  0  0  0  0  0  0  0
    0.2503   -1.2418   -0.4657 H   0  0  0  0  0  0  0  0  0  0  0  0
    1.0806   -0.7037    0.9761 H   0  0  0  0  0  0  0  0  0  0  0  0
    1.7026   -3.2737   -0.5407 H   0  0  0  0  0  0  0  0  0  0  0  0
    2.7484   -2.6312    0.7226 H   0  0  0  0  0  0  0  0  0  0  0  0
    1.0603   -2.8738    2.4230 H   0  0  0  0  0  0  0  0  0  0  0  0
    1.1803   -4.4020    1.5563 H   0  0  0  0  0  0  0  0  0  0  0  0
   -1.4714   -1.6911    2.4566 H   0  0  0  0  0  0  0  0  0  0  0  0
   -2.9673   -0.4476    1.0297 H   0  0  0  0  0  0  0  0  0  0  0  0
   -2.6942   -0.9213   -0.6406 H   0  0  0  0  0  0  0  0  0  0  0  0
   -4.9300   -2.0561   -0.7129 H   0  0  0  0  0  0  0  0  0  0  0  0
   -5.1714   -1.6971    0.9998 H   0  0  0  0  0  0  0  0  0  0  0  0
   -3.8361    0.8644   -1.8521 H   0  0  0  0  0  0  0  0  0  0  0  0
   -3.6603    2.9501   -2.4450 H   0  0  0  0  0  0  0  0  0  0  0  0
   -7.9049    2.6517    0.9814 H   0  0  0  0  0  0  0  0  0  0  0  0
    1.3822    0.0910   -2.6590 H   0  0  0  0  0  0  0  0  0  0  0  0
    1.4110   -1.6446   -2.4503 H   0  0  0  0  0  0  0  0  0  0  0  0
    3.0096   -1.0471   -4.1901 H   0  0  0  0  0  0  0  0  0  0  0  0
    3.8265   -1.8160   -2.8285 H   0  0  0  0  0  0  0  0  0  0  0  0
    3.8558    0.9802   -3.6606 H   0  0  0  0  0  0  0  0  0  0  0  0
  2  1  1  0  0  0  0
  3  2  1  0  0  0  0
  4  3  2  0  0  0  0
  5  3  1  0  0  0  0
  6  5  2  0  0  0  0
  7  6  1  0  0  0  0
  8  7  1  0  0  0  0
  9  8  2  0  0  0  0
 10  9  1  0  0  0  0
 11 10  2  0  0  0  0
 12 10  1  0  0  0  0
 13 12  1  0  0  0  0
 13  7  2  0  0  0  0
 13  2  1  0  0  0  0
 14 12  1  0  0  0  0
 15 14  1  0  0  0  0
 16 15  1  0  0  0  0
 17 16  1  0  0  0  0
 18 17  1  0  0  0  0
 19 18  2  0  0  0  0
 20 19  1  0  0  0  0
 21 20  1  0  0  0  0
 22 21  1  0  0  0  0
 23 22  1  0  0  0  0
 24 23  2  0  0  0  0
 25 24  1  0  0  0  0
 26 25  1  0  0  0  0
 27 26  2  0  0  0  0
 28 26  1  0  0  0  0
 29 28  2  0  0  0  0
 30 29  1  0  0  0  0
 31 30  1  0  0  0  0
 31 25  1  0  0  0  0
 32 31  2  0  0  0  0
 32 23  1  0  0  0  0
 33 20  1  0  0  0  0
 34 33  2  0  0  0  0
 34 18  1  0  0  0  0
 35 14  1  0  0  0  0
 36 35  1  0  0  0  0
 37 36  1  0  0  0  0
 37  9  1  0  0  0  0
  1 38  1  0  0  0  0
  1 39  1  0  0  0  0
  1 40  1  0  0  0  0
  5 41  1  0  0  0  0
  6 42  1  0  0  0  0
 11 43  1  0  0  0  0
 15 44  1  0  0  0  0
 15 45  1  0  0  0  0
 16 46  1  0  0  0  0
 16 47  1  0  0  0  0
 17 48  1  0  0  0  0
 17 49  1  0  0  0  0
 19 50  1  0  0  0  0
 21 51  1  0  0  0  0
 21 52  1  0  0  0  0
 22 53  1  0  0  0  0
 22 54  1  0  0  0  0
 24 55  1  0  0  0  0
 27 56  1  0  0  0  0
 30 57  1  0  0  0  0
 35 58  1  0  0  0  0
 35 59  1  0  0  0  0
 36 60  1  0  0  0  0
 36 61  1  0  0  0  0
 37 62  1  0  0  0  0
M  END
>  <energy>
183.19348857582099

$$$$
