C=CCCCC1OC2C1OC21C(O)CC(O)C(OC2OC(CO)C(O)C(O)C2O)C1(C)C
                    3D

 68 71  0  0  0  0  0  0  0  0999 V2000
    1.1485   -5.2701    3.1234 C   0  0  0  0  0  0  0  0  0  0  0  0
    2.1582   -5.5648    2.2976 C   0  0  0  0  0  0  0  0  0  0  0  0
    3.3704   -4.6954    2.1135 C   0  0  0  0  0  0  0  0  0  0  0  0
    3.4931   -4.1126    0.7037 C   0  0  0  0  0  0  0  0  0  0  0  0
    2.3048   -3.2216    0.3476 C   0  0  0  0  0  0  0  0  0  0  0  0
    2.5771   -2.4287   -0.9201 C   0  0  0  0  0  0  0  0  0  0  0  0
    3.6040   -1.4102   -0.7264 O   0  0  0  0  0  0  0  0  0  0  0  0
    2.7098   -0.3926   -1.2553 C   0  0  0  0  0  0  0  0  0  0  0  0
    1.5378   -1.3536   -1.2571 C   0  0  0  0  0  0  0  0  0  0  0  0
    0.8637   -0.6151   -0.2058 O   0  0  0  0  0  0  0  0  0  0  0  0
    1.8628    0.4686   -0.2815 C   0  0  0  0  0  0  0  0  0  0  0  0
    2.5281    0.6360    1.1061 C   0  0  0  0  0  0  0  0  0  0  0  0
    3.9004    1.0142    0.9543 O   0  0  0  0  0  0  0  0  0  0  0  0
    1.8528    1.6930    1.9824 C   0  0  0  0  0  0  0  0  0  0  0  0
    0.3792    1.8874    1.6720 C   0  0  0  0  0  0  0  0  0  0  0  0
   -0.3340    0.7106    2.1012 O   0  0  0  0  0  0  0  0  0  0  0  0
    0.0810    2.1996    0.1765 C   0  0  0  0  0  0  0  0  0  0  0  0
   -1.1118    1.4811   -0.1753 O   0  0  0  0  0  0  0  0  0  0  0  0
   -2.3372    2.1344    0.1399 C   0  0  0  0  0  0  0  0  0  0  0  0
   -2.9114    2.6359   -1.0701 O   0  0  0  0  0  0  0  0  0  0  0  0
   -3.5509    1.5890   -1.8299 C   0  0  0  0  0  0  0  0  0  0  0  0
   -3.7996    2.0855   -3.2561 C   0  0  0  0  0  0  0  0  0  0  0  0
   -2.5607    2.0946   -3.9770 O   0  0  0  0  0  0  0  0  0  0  0  0
   -4.8337    1.1452   -1.0997 C   0  0  0  0  0  0  0  0  0  0  0  0
   -5.9888    1.8847   -1.5227 O   0  0  0  0  0  0  0  0  0  0  0  0
   -4.6909    1.3173    0.4228 C   0  0  0  0  0  0  0  0  0  0  0  0
   -5.5631    0.3858    1.0845 O   0  0  0  0  0  0  0  0  0  0  0  0
   -3.2467    1.1098    0.8607 C   0  0  0  0  0  0  0  0  0  0  0  0
   -3.1507    1.2437    2.2895 O   0  0  0  0  0  0  0  0  0  0  0  0
    1.2048    1.7687   -0.8226 C   0  0  0  0  0  0  0  0  0  0  0  0
    0.5953    1.5603   -2.2352 C   0  0  0  0  0  0  0  0  0  0  0  0
    2.2631    2.8830   -0.9900 C   0  0  0  0  0  0  0  0  0  0  0  0
    1.1330   -4.3601    3.7192 H   0  0  0  0  0  0  0  0  0  0  0  0
    0.2972   -5.9377    3.2251 H   0  0  0  0  0  0  0  0  0  0  0  0
    2.1228   -6.4914    1.7235 H   0  0  0  0  0  0  0  0  0  0  0  0
    4.2605   -5.2943    2.3267 H   0  0  0  0  0  0  0  0  0  0  0  0
    3.3784   -3.8775    2.8430 H   0  0  0  0  0  0  0  0  0  0  0  0
    3.5852   -4.9160   -0.0385 H   0  0  0  0  0  0  0  0  0  0  0  0
    4.4274   -3.5381    0.6512 H   0  0  0  0  0  0  0  0  0  0  0  0
    1.4138   -3.8415    0.1932 H   0  0  0  0  0  0  0  0  0  0  0  0
    2.0852   -2.5456    1.1808 H   0  0  0  0  0  0  0  0  0  0  0  0
    2.8279   -3.0640   -1.7788 H   0  0  0  0  0  0  0  0  0  0  0  0
    3.0339    0.0134   -2.2142 H   0  0  0  0  0  0  0  0  0  0  0  0
    0.9623   -1.4530   -2.1801 H   0  0  0  0  0  0  0  0  0  0  0  0
    2.5250   -0.3168    1.6466 H   0  0  0  0  0  0  0  0  0  0  0  0
    4.3752    0.2157    0.6447 H   0  0  0  0  0  0  0  0  0  0  0  0
    2.3784    2.6523    1.9215 H   0  0  0  0  0  0  0  0  0  0  0  0
    1.9725    1.3787    3.0270 H   0  0  0  0  0  0  0  0  0  0  0  0
   -0.0099    2.7069    2.2875 H   0  0  0  0  0  0  0  0  0  0  0  0
   -0.2817    0.0818    1.3466 H   0  0  0  0  0  0  0  0  0  0  0  0
   -0.0905    3.2770    0.0452 H   0  0  0  0  0  0  0  0  0  0  0  0
   -2.1658    2.9952    0.7959 H   0  0  0  0  0  0  0  0  0  0  0  0
   -2.8523    0.7425   -1.8807 H   0  0  0  0  0  0  0  0  0  0  0  0
   -4.4832    1.4256   -3.7989 H   0  0  0  0  0  0  0  0  0  0  0  0
   -4.1894    3.1079   -3.2541 H   0  0  0  0  0  0  0  0  0  0  0  0
   -2.7288    2.5490   -4.8178 H   0  0  0  0  0  0  0  0  0  0  0  0
   -5.0481    0.1020   -1.3608 H   0  0  0  0  0  0  0  0  0  0  0  0
   -6.7229    1.5613   -0.9668 H   0  0  0  0  0  0  0  0  0  0  0  0
   -5.0354    2.3124    0.7310 H   0  0  0  0  0  0  0  0  0  0  0  0
   -5.3061    0.4284    2.0297 H   0  0  0  0  0  0  0  0  0  0  0  0
   -2.9404    0.0803    0.6407 H   0  0  0  0  0  0  0  0  0  0  0  0
   -2.2090    1.0639    2.5115 H   0  0  0  0  0  0  0  0  0  0  0  0
    1.3654    1.3392   -2.9812 H   0  0  0  0  0  0  0  0  0  0  0  0
   -0.1250    0.7374   -2.2663 H   0  0  0  0  0  0  0  0  0  0  0  0
    0.0763    2.4687   -2.5641 H   0  0  0  0  0  0  0  0  0  0  0  0
    2.7535    3.1709   -0.0596 H   0  0  0  0  0  0  0  0  0  0  0  0
    3.0545    2.5699   -1.6810 H   0  0  0  0  0  0  0  0  0  0  0  0
    1.8047    3.7921   -1.3985 H   0  0  0  0  0  0  0  0  0  0  0  0
  2  1  2  0  0  0  0
  3  2  1  0  0  0  0
  4  3  1  0  0  0  0
  5  4  1  0  0  0  0
  6  5  1  0  0  0  0
  7  6  1  0  0  0  0
  8  7  1  0  0  0  0
  9  8  1  0  0  0  0
  9  6  1  0  0  0  0
 10  9  1  0  0  0  0
 11 10  1  0  0  0  0
 11  8  1  0  0  0  0
 12 11  1  0  0  0  0
 13 12  1  0  0  0  0
 14 12  1  0  0  0  0
 15 14  1  0  0  0  0
 16 15  1  0  0  0  0
 17 15  1  0  0  0  0
 18 17  1  0  0  0  0
 19 18  1  0  0  0  0
 20 19  1  0  0  0  0
 21 20  1  0  0  0  0
 22 21  1  0  0  0  0
 23 22  1  0  0  0  0
 24 21  1  0  0  0  0
 25 24  1  0  0  0  0
 26 24  1  0  0  0  0
 27 26  1  0  0  0  0
 28 26  1  0  0  0  0
 28 19  1  0  0  0  0
 29 28  1  0  0  0  0
 30 17  1  0  0  0  0
 30 11  1  0  0  0  0
 31 30  1  0  0  0  0
 32 30  1  0  0  0  0
  1 33  1  0  0  0  0
  1 34  1  0  0  0  0
  2 35  1  0  0  0  0
  3 36  1  0  0  0  0
  3 37  1  0  0  0  0
  4 38  1  0  0  0  0
  4 39  1  0  0  0  0
  5 40  1  0  0  0  0
  5 41  1  0  0  0  0
  6 42  1  0  0  0  0
  8 43  1  0  0  0  0
  9 44  1  0  0  0  0
 12 45  1  0  0  0  0
 13 46  1  0  0  0  0
 14 47  1  0  0  0  0
 14 48  1  0  0  0  0
 15 49  1  0  0  0  0
 16 50  1  0  0  0  0
 17 51  1  0  0  0  0
 19 52  1  0  0  0  0
 21 53  1  0  0  0  0
 22 54  1  0  0  0  0
 22 55  1  0  0  0  0
 23 56  1  0  0  0  0
 24 57  1  0  0  0  0
 25 58  1  0  0  0  0
 26 59  1  0  0  0  0
 27 60  1  0  0  0  0
 28 61  1  0  0  0  0
 29 62  1  0  0  0  0
 31 63  1  0  0  0  0
 31 64  1  0  0  0  0
 31 65  1  0  0  0  0
 32 66  1  0  0  0  0
 32 67  1  0  0  0  0
 32 68  1  0  0  0  0
M  END
>  <energy>
208.16939371260261

$$$$
