CCCCCC(O)C1OC23CCC(O)C2(O)CC(C)=C1C3
                    3D

 49 51  0  0  0  0  0  0  0  0999 V2000
   -4.2445   -2.2294   -1.2760 C   0  0  0  0  0  0  0  0  0  0  0  0
   -4.1622   -0.7318   -1.0128 C   0  0  0  0  0  0  0  0  0  0  0  0
   -3.5631   -0.4648    0.3707 C   0  0  0  0  0  0  0  0  0  0  0  0
   -3.4187    1.0238    0.6912 C   0  0  0  0  0  0  0  0  0  0  0  0
   -2.2056    1.6986    0.0360 C   0  0  0  0  0  0  0  0  0  0  0  0
   -0.9135    1.5703    0.8758 C   0  0  0  0  0  0  0  0  0  0  0  0
   -0.9402    2.5980    1.8762 O   0  0  0  0  0  0  0  0  0  0  0  0
    0.3508    1.7286   -0.0114 C   0  0  0  0  0  0  0  0  0  0  0  0
    0.4080    0.6143   -0.9665 O   0  0  0  0  0  0  0  0  0  0  0  0
    1.7950    0.1463   -1.0089 C   0  0  0  0  0  0  0  0  0  0  0  0
    2.1180   -0.4613   -2.3692 C   0  0  0  0  0  0  0  0  0  0  0  0
    2.9172   -1.7477   -2.1068 C   0  0  0  0  0  0  0  0  0  0  0  0
    3.1841   -1.8026   -0.6016 C   0  0  0  0  0  0  0  0  0  0  0  0
    4.4564   -1.2171   -0.3427 O   0  0  0  0  0  0  0  0  0  0  0  0
    2.0212   -1.0027    0.0254 C   0  0  0  0  0  0  0  0  0  0  0  0
    0.8450   -1.8382    0.0385 O   0  0  0  0  0  0  0  0  0  0  0  0
    2.3133   -0.5220    1.4809 C   0  0  0  0  0  0  0  0  0  0  0  0
    1.9494    0.9351    1.7079 C   0  0  0  0  0  0  0  0  0  0  0  0
    1.5491    1.3324    3.0923 C   0  0  0  0  0  0  0  0  0  0  0  0
    1.7507    1.6858    0.6000 C   0  0  0  0  0  0  0  0  0  0  0  0
    2.5948    1.3610   -0.6170 C   0  0  0  0  0  0  0  0  0  0  0  0
   -4.6481   -2.4255   -2.2773 H   0  0  0  0  0  0  0  0  0  0  0  0
   -3.2518   -2.6906   -1.2053 H   0  0  0  0  0  0  0  0  0  0  0  0
   -4.8998   -2.7191   -0.5473 H   0  0  0  0  0  0  0  0  0  0  0  0
   -3.5675   -0.2572   -1.7980 H   0  0  0  0  0  0  0  0  0  0  0  0
   -5.1724   -0.3056   -1.0672 H   0  0  0  0  0  0  0  0  0  0  0  0
   -2.5958   -0.9753    0.4672 H   0  0  0  0  0  0  0  0  0  0  0  0
   -4.2325   -0.9098    1.1185 H   0  0  0  0  0  0  0  0  0  0  0  0
   -3.3670    1.1381    1.7793 H   0  0  0  0  0  0  0  0  0  0  0  0
   -4.3276    1.5455    0.3729 H   0  0  0  0  0  0  0  0  0  0  0  0
   -2.0676    1.3154   -0.9826 H   0  0  0  0  0  0  0  0  0  0  0  0
   -2.4347    2.7685   -0.0514 H   0  0  0  0  0  0  0  0  0  0  0  0
   -0.8857    0.5932    1.3754 H   0  0  0  0  0  0  0  0  0  0  0  0
   -1.7634    2.5091    2.3838 H   0  0  0  0  0  0  0  0  0  0  0  0
    0.2529    2.6664   -0.5770 H   0  0  0  0  0  0  0  0  0  0  0  0
    1.2060   -0.7082   -2.9254 H   0  0  0  0  0  0  0  0  0  0  0  0
    2.6933    0.2345   -2.9899 H   0  0  0  0  0  0  0  0  0  0  0  0
    3.8459   -1.7542   -2.6909 H   0  0  0  0  0  0  0  0  0  0  0  0
    2.3248   -2.6180   -2.4152 H   0  0  0  0  0  0  0  0  0  0  0  0
    3.2021   -2.8340   -0.2384 H   0  0  0  0  0  0  0  0  0  0  0  0
    5.1304   -1.8689   -0.6100 H   0  0  0  0  0  0  0  0  0  0  0  0
    0.1122   -1.2256   -0.1670 H   0  0  0  0  0  0  0  0  0  0  0  0
    1.7244   -1.1337    2.1763 H   0  0  0  0  0  0  0  0  0  0  0  0
    3.3647   -0.6588    1.7561 H   0  0  0  0  0  0  0  0  0  0  0  0
    1.4173    2.4177    3.1735 H   0  0  0  0  0  0  0  0  0  0  0  0
    2.3303    1.0459    3.8089 H   0  0  0  0  0  0  0  0  0  0  0  0
    0.6210    0.8331    3.3867 H   0  0  0  0  0  0  0  0  0  0  0  0
    2.5365    2.1747   -1.3525 H   0  0  0  0  0  0  0  0  0  0  0  0
    3.6468    1.1657   -0.3850 H   0  0  0  0  0  0  0  0  0  0  0  0
  2  1  1  0  0  0  0
  3  2  1  0  0  0  0
  4  3  1  0  0  0  0
  5  4  1  0  0  0  0
  6  5  1  0  0  0  0
  7  6  1  0  0  0  0
  8  6  1  0  0  0  0
  9  8  1  0  0  0  0
 10  9  1  0  0  0  0
 11 10  1  0  0  0  0
 12 11  1  0  0  0  0
 13 12  1  0  0  0  0
 14 13  1  0  0  0  0
 15 13  1  0  0  0  0
 15 10  1  0  0  0  0
 16 15  1  0  0  0  0
 17 15  1  0  0  0  0
 18 17  1  0  0  0  0
 19 18  1  0  0  0  0
 20 18  2  0  0  0  0
 20  8  1  0  0  0  0
 21 20  1  0  0  0  0
 21 10  1  0  0  0  0
  1 22  1  0  0  0  0
  1 23  1  0  0  0  0
  1 24  1  0  0  0  0
  2 25  1  0  0  0  0
  2 26  1  0  0  0  0
  3 27  1  0  0  0  0
  3 28  1  0  0  0  0
  4 29  1  0  0  0  0
  4 30  1  0  0  0  0
  5 31  1  0  0  0  0
  5 32  1  0  0  0  0
  6 33  1  0  0  0  0
  7 34  1  0  0  0  0
  8 35  1  0  0  0  0
 11 36  1  0  0  0  0
 11 37  1  0  0  0  0
 12 38  1  0  0  0  0
 12 39  1  0  0  0  0
 13 40  1  0  0  0  0
 14 41  1  0  0  0  0
 16 42  1  0  0  0  0
 17 43  1  0  0  0  0
 17 44  1  0  0  0  0
 19 45  1  0  0  0  0
 19 46  1  0  0  0  0
 19 47  1  0  0  0  0
 21 48  1  0  0  0  0
 21 49  1  0  0  0  0
M  END
>  <energy>
173.5649685784866

$$$$
