C=C(C)C1(C)C2C3C4CC56CC78CC(C)(C)C(SCl)C5OC5CN(CC5(C)CC7(C(O)C4C(C)(O6)C2O)C8(C)
                    3D

 91 99  0  0  0  0  0  0  0  0999 V2000
    1.8562    3.5438    0.0066 C   0  0  0  0  0  0  0  0  0  0  0  0
    2.8451    3.0291    0.7586 C   0  0  0  0  0  0  0  0  0  0  0  0
    3.2524    3.7913    2.0068 C   0  0  0  0  0  0  0  0  0  0  0  0
    3.5879    1.7471    0.4180 C   0  0  0  0  0  0  0  0  0  0  0  0
    5.1214    2.0566    0.5461 C   0  0  0  0  0  0  0  0  0  0  0  0
    3.4033    0.9987   -1.0127 C   0  0  0  0  0  0  0  0  0  0  0  0
    3.1104   -0.2955   -0.2422 C   0  0  0  0  0  0  0  0  0  0  0  0
    1.7408   -0.8265   -0.5374 C   0  0  0  0  0  0  0  0  0  0  0  0
    0.6730    0.1394   -0.1644 C   0  0  0  0  0  0  0  0  0  0  0  0
   -0.5718    0.5673   -0.8987 C   0  0  0  0  0  0  0  0  0  0  0  0
   -1.6272   -0.2707   -1.6804 C   0  0  0  0  0  0  0  0  0  0  0  0
   -2.2116   -1.3160   -0.7831 C   0  0  0  0  0  0  0  0  0  0  0  0
   -3.4531   -0.8595    0.0309 C   0  0  0  0  0  0  0  0  0  0  0  0
   -3.9177    0.6607    0.0146 C   0  0  0  0  0  0  0  0  0  0  0  0
   -4.9463    0.7708    1.1948 C   0  0  0  0  0  0  0  0  0  0  0  0
   -4.7729    0.9595   -1.2429 C   0  0  0  0  0  0  0  0  0  0  0  0
   -2.7630    1.7049    0.3492 C   0  0  0  0  0  0  0  0  0  0  0  0
   -2.7902    3.4088   -0.3163 S   0  0  0  0  0  0  0  0  0  0  0  0
   -2.4016    3.1623   -2.2874 Cl  0  0  0  0  0  0  0  0  0  0  0  0
   -1.3803    1.0521    0.4319 C   0  0  0  0  0  0  0  0  0  0  0  0
   -0.6116    1.5215    1.5509 O   0  0  0  0  0  0  0  0  0  0  0  0
   -0.0999    0.5428    2.5331 C   0  0  0  0  0  0  0  0  0  0  0  0
    1.3589    1.0628    2.7933 C   0  0  0  0  0  0  0  0  0  0  0  0
    2.1849    0.1192    2.0763 N   0  0  0  0  0  0  0  0  0  0  0  0
    1.7298   -1.2180    2.4436 C   0  0  0  0  0  0  0  0  0  0  0  0
    0.1318   -1.1348    2.3854 C   0  0  0  0  0  0  0  0  0  0  0  0
   -0.3577   -1.7108    3.7500 C   0  0  0  0  0  0  0  0  0  0  0  0
   -0.5352   -2.2360    1.2424 C   0  0  0  0  0  0  0  0  0  0  0  0
   -0.9264   -2.1317   -0.3968 C   0  0  0  0  0  0  0  0  0  0  0  0
    0.2838   -2.2710   -1.6147 C   0  0  0  0  0  0  0  0  0  0  0  0
    0.9945   -3.4902   -1.3183 O   0  0  0  0  0  0  0  0  0  0  0  0
    1.3625   -1.1167   -1.9159 C   0  0  0  0  0  0  0  0  0  0  0  0
    1.1727    0.3844   -2.5445 C   0  0  0  0  0  0  0  0  0  0  0  0
    0.8381    0.3096   -4.0414 C   0  0  0  0  0  0  0  0  0  0  0  0
    0.1256    1.2747   -1.9227 O   0  0  0  0  0  0  0  0  0  0  0  0
    2.6173    1.1003   -2.3878 C   0  0  0  0  0  0  0  0  0  0  0  0
    2.6537    2.4344   -2.8948 O   0  0  0  0  0  0  0  0  0  0  0  0
   -2.1924   -2.8505   -0.9176 C   0  0  0  0  0  0  0  0  0  0  0  0
   -2.3750   -3.3939   -2.3299 C   0  0  0  0  0  0  0  0  0  0  0  0
   -2.9256   -3.7721    0.0515 C   0  0  0  0  0  0  0  0  0  0  0  0
    3.3414    0.3642    1.1835 C   0  0  0  0  0  0  0  0  0  0  0  0
    1.4323    3.0631   -0.8653 H   0  0  0  0  0  0  0  0  0  0  0  0
    1.3765    4.4841    0.2683 H   0  0  0  0  0  0  0  0  0  0  0  0
    3.4846    3.1045    2.8252 H   0  0  0  0  0  0  0  0  0  0  0  0
    2.4419    4.4354    2.3677 H   0  0  0  0  0  0  0  0  0  0  0  0
    4.1280    4.4271    1.8277 H   0  0  0  0  0  0  0  0  0  0  0  0
    5.3964    2.2962    1.5792 H   0  0  0  0  0  0  0  0  0  0  0  0
    5.7388    1.1994    0.2575 H   0  0  0  0  0  0  0  0  0  0  0  0
    5.4059    2.9012   -0.0927 H   0  0  0  0  0  0  0  0  0  0  0  0
    4.4211    0.9312   -1.4497 H   0  0  0  0  0  0  0  0  0  0  0  0
    3.8603   -1.0689   -0.4641 H   0  0  0  0  0  0  0  0  0  0  0  0
    1.7011   -1.7563    0.0218 H   0  0  0  0  0  0  0  0  0  0  0  0
    1.1310    1.0716    0.1429 H   0  0  0  0  0  0  0  0  0  0  0  0
    0.2825   -0.3616    0.6355 H   0  0  0  0  0  0  0  0  0  0  0  0
   -1.2528   -0.7030   -2.6015 H   0  0  0  0  0  0  0  0  0  0  0  0
   -2.3754    0.4007   -2.0855 H   0  0  0  0  0  0  0  0  0  0  0  0
   -4.3076   -1.4450   -0.3366 H   0  0  0  0  0  0  0  0  0  0  0  0
   -3.3177   -1.1735    1.0736 H   0  0  0  0  0  0  0  0  0  0  0  0
   -4.4867    0.5162    2.1586 H   0  0  0  0  0  0  0  0  0  0  0  0
   -5.3499    1.7861    1.2774 H   0  0  0  0  0  0  0  0  0  0  0  0
   -5.7909    0.0832    1.0476 H   0  0  0  0  0  0  0  0  0  0  0  0
   -4.2505    0.8349   -2.1945 H   0  0  0  0  0  0  0  0  0  0  0  0
   -5.6349    0.2756   -1.2898 H   0  0  0  0  0  0  0  0  0  0  0  0
   -5.1844    1.9762   -1.2162 H   0  0  0  0  0  0  0  0  0  0  0  0
   -2.9445    1.9646    1.4061 H   0  0  0  0  0  0  0  0  0  0  0  0
   -1.6637    0.1134    0.8963 H   0  0  0  0  0  0  0  0  0  0  0  0
   -0.7016    0.7302    3.4292 H   0  0  0  0  0  0  0  0  0  0  0  0
    1.5883    1.0340    3.8654 H   0  0  0  0  0  0  0  0  0  0  0  0
    1.4205    2.0927    2.4720 H   0  0  0  0  0  0  0  0  0  0  0  0
    2.1348   -2.0409    1.8553 H   0  0  0  0  0  0  0  0  0  0  0  0
    2.0748   -1.4306    3.4624 H   0  0  0  0  0  0  0  0  0  0  0  0
   -1.4485   -1.6306    3.8340 H   0  0  0  0  0  0  0  0  0  0  0  0
    0.0734   -1.1709    4.6020 H   0  0  0  0  0  0  0  0  0  0  0  0
   -0.0807   -2.7674    3.8535 H   0  0  0  0  0  0  0  0  0  0  0  0
    0.0754   -3.1444    1.3177 H   0  0  0  0  0  0  0  0  0  0  0  0
   -1.4826   -2.4866    1.7137 H   0  0  0  0  0  0  0  0  0  0  0  0
   -0.1804   -2.4466   -2.5834 H   0  0  0  0  0  0  0  0  0  0  0  0
    0.4509   -4.0009   -0.6987 H   0  0  0  0  0  0  0  0  0  0  0  0
    2.1923   -1.5938   -2.4561 H   0  0  0  0  0  0  0  0  0  0  0  0
   -0.1265   -0.1659   -4.2330 H   0  0  0  0  0  0  0  0  0  0  0  0
    0.7657    1.3149   -4.4705 H   0  0  0  0  0  0  0  0  0  0  0  0
    1.6006   -0.2500   -4.5906 H   0  0  0  0  0  0  0  0  0  0  0  0
    3.2454    0.5321   -3.0920 H   0  0  0  0  0  0  0  0  0  0  0  0
    3.0845    3.0014   -2.2378 H   0  0  0  0  0  0  0  0  0  0  0  0
   -2.1226   -2.6846   -3.1233 H   0  0  0  0  0  0  0  0  0  0  0  0
   -1.7835   -4.3057   -2.4589 H   0  0  0  0  0  0  0  0  0  0  0  0
   -3.4261   -3.6529   -2.4968 H   0  0  0  0  0  0  0  0  0  0  0  0
   -3.9045   -4.0499   -0.3505 H   0  0  0  0  0  0  0  0  0  0  0  0
   -3.1271   -3.3378    1.0323 H   0  0  0  0  0  0  0  0  0  0  0  0
   -2.3456   -4.6897    0.2001 H   0  0  0  0  0  0  0  0  0  0  0  0
    4.2556   -0.0244    1.6469 H   0  0  0  0  0  0  0  0  0  0  0  0
  2  1  2  0  0  0  0
  3  2  1  0  0  0  0
  4  2  1  0  0  0  0
  5  4  1  0  0  0  0
  6  4  1  0  0  0  0
  7  6  1  0  0  0  0
  8  7  1  0  0  0  0
  9  8  1  0  0  0  0
 10  9  1  0  0  0  0
 11 10  1  0  0  0  0
 12 11  1  0  0  0  0
 13 12  1  0  0  0  0
 14 13  1  0  0  0  0
 15 14  1  0  0  0  0
 16 14  1  0  0  0  0
 17 14  1  0  0  0  0
 18 17  1  0  0  0  0
 19 18  1  0  0  0  0
 20 17  1  0  0  0  0
 20 10  1  0  0  0  0
 21 20  1  0  0  0  0
 22 21  1  0  0  0  0
 23 22  1  0  0  0  0
 24 23  1  0  0  0  0
 25 24  1  0  0  0  0
 26 25  1  0  0  0  0
 26 22  1  0  0  0  0
 27 26  1  0  0  0  0
 28 26  1  0  0  0  0
 29 28  1  0  0  0  0
 29 12  1  0  0  0  0
 30 29  1  0  0  0  0
 31 30  1  0  0  0  0
 32 30  1  0  0  0  0
 32  8  1  0  0  0  0
 33 32  1  0  0  0  0
 34 33  1  0  0  0  0
 35 33  1  0  0  0  0
 35 10  1  0  0  0  0
 36 33  1  0  0  0  0
 36  6  1  0  0  0  0
 37 36  1  0  0  0  0
 38 29  1  0  0  0  0
 38 12  1  0  0  0  0
 39 38  1  0  0  0  0
 40 38  1  0  0  0  0
 41 24  1  0  0  0  0
 41  7  1  0  0  0  0
 41  4  1  0  0  0  0
  1 42  1  0  0  0  0
  1 43  1  0  0  0  0
  3 44  1  0  0  0  0
  3 45  1  0  0  0  0
  3 46  1  0  0  0  0
  5 47  1  0  0  0  0
  5 48  1  0  0  0  0
  5 49  1  0  0  0  0
  6 50  1  0  0  0  0
  7 51  1  0  0  0  0
  8 52  1  0  0  0  0
  9 53  1  0  0  0  0
  9 54  1  0  0  0  0
 11 55  1  0  0  0  0
 11 56  1  0  0  0  0
 13 57  1  0  0  0  0
 13 58  1  0  0  0  0
 15 59  1  0  0  0  0
 15 60  1  0  0  0  0
 15 61  1  0  0  0  0
 16 62  1  0  0  0  0
 16 63  1  0  0  0  0
 16 64  1  0  0  0  0
 17 65  1  0  0  0  0
 20 66  1  0  0  0  0
 22 67  1  0  0  0  0
 23 68  1  0  0  0  0
 23 69  1  0  0  0  0
 25 70  1  0  0  0  0
 25 71  1  0  0  0  0
 27 72  1  0  0  0  0
 27 73  1  0  0  0  0
 27 74  1  0  0  0  0
 28 75  1  0  0  0  0
 28 76  1  0  0  0  0
 30 77  1  0  0  0  0
 31 78  1  0  0  0  0
 32 79  1  0  0  0  0
 34 80  1  0  0  0  0
 34 81  1  0  0  0  0
 34 82  1  0  0  0  0
 36 83  1  0  0  0  0
 37 84  1  0  0  0  0
 39 85  1  0  0  0  0
 39 86  1  0  0  0  0
 39 87  1  0  0  0  0
 40 88  1  0  0  0  0
 40 89  1  0  0  0  0
 40 90  1  0  0  0  0
 41 91  1  0  0  0  0
M  END
>  <energy>
599.87038266239392

$$$$
