CC(C)C1CC(O)C2(C)C3OC4(O3)C(=O)CCC(C)(C)CC4(Br)C3CC4(C#N)C5(O)C(C)OC(C)(C)C5C24C
                    3D

 83 89  0  0  0  0  0  0  0  0999 V2000
    0.4955    0.8533    3.5256 C   0  0  0  0  0  0  0  0  0  0  0  0
    0.9510   -0.3439    2.6790 C   0  0  0  0  0  0  0  0  0  0  0  0
    2.0489   -1.0639    3.4963 C   0  0  0  0  0  0  0  0  0  0  0  0
    1.4592   -0.0060    1.2369 C   0  0  0  0  0  0  0  0  0  0  0  0
    2.3183    1.2748    1.1058 C   0  0  0  0  0  0  0  0  0  0  0  0
    2.0765    2.2472   -0.0534 C   0  0  0  0  0  0  0  0  0  0  0  0
    3.3338    2.4448   -0.7195 O   0  0  0  0  0  0  0  0  0  0  0  0
    0.9759    1.8891   -1.0766 C   0  0  0  0  0  0  0  0  0  0  0  0
    1.1948    2.7012   -2.3736 C   0  0  0  0  0  0  0  0  0  0  0  0
   -0.3607    2.3798   -0.5028 C   0  0  0  0  0  0  0  0  0  0  0  0
   -1.4974    1.7476   -1.0655 O   0  0  0  0  0  0  0  0  0  0  0  0
   -1.9886    1.4006    0.2371 C   0  0  0  0  0  0  0  0  0  0  0  0
   -0.7165    1.8306    0.7669 O   0  0  0  0  0  0  0  0  0  0  0  0
   -3.1828    2.3451    0.6914 C   0  0  0  0  0  0  0  0  0  0  0  0
   -3.7433    3.1760   -0.0352 O   0  0  0  0  0  0  0  0  0  0  0  0
   -3.6279    2.2509    2.1301 C   0  0  0  0  0  0  0  0  0  0  0  0
   -4.5442    1.0541    2.2968 C   0  0  0  0  0  0  0  0  0  0  0  0
   -3.8129   -0.2635    2.6286 C   0  0  0  0  0  0  0  0  0  0  0  0
   -3.4481   -0.2535    4.1418 C   0  0  0  0  0  0  0  0  0  0  0  0
   -4.8167   -1.4310    2.4642 C   0  0  0  0  0  0  0  0  0  0  0  0
   -2.4649   -0.5210    1.8633 C   0  0  0  0  0  0  0  0  0  0  0  0
   -2.1510   -0.1246    0.3816 C   0  0  0  0  0  0  0  0  0  0  0  0
   -3.7154   -0.6655   -0.7155 Br  0  0  0  0  0  0  0  0  0  0  0  0
   -0.8608   -0.9576   -0.1201 C   0  0  0  0  0  0  0  0  0  0  0  0
   -0.7869   -1.4145   -1.6192 C   0  0  0  0  0  0  0  0  0  0  0  0
   -0.0487   -0.3182   -2.4137 C   0  0  0  0  0  0  0  0  0  0  0  0
   -1.0248    0.4160   -3.2126 C   0  0  0  0  0  0  0  0  0  0  0  0
   -1.7619    0.9200   -3.9521 N   0  0  0  0  0  0  0  0  0  0  0  0
    1.2227   -0.5740   -3.3447 C   0  0  0  0  0  0  0  0  0  0  0  0
    1.4163    0.3419   -4.4631 O   0  0  0  0  0  0  0  0  0  0  0  0
    1.5885   -1.9895   -3.8028 C   0  0  0  0  0  0  0  0  0  0  0  0
    0.4343   -2.8270   -4.3220 C   0  0  0  0  0  0  0  0  0  0  0  0
    2.2461   -2.5861   -2.6889 O   0  0  0  0  0  0  0  0  0  0  0  0
    3.0494   -1.5382   -2.1184 C   0  0  0  0  0  0  0  0  0  0  0  0
    3.5521   -1.9786   -0.7520 C   0  0  0  0  0  0  0  0  0  0  0  0
    4.3158   -1.3129   -2.9907 C   0  0  0  0  0  0  0  0  0  0  0  0
    2.1739   -0.2569   -2.1510 C   0  0  0  0  0  0  0  0  0  0  0  0
    0.9028    0.3422   -1.3209 C   0  0  0  0  0  0  0  0  0  0  0  0
    0.6195   -0.4553   -0.0014 C   0  0  0  0  0  0  0  0  0  0  0  0
   -0.0863    0.5056    4.3870 H   0  0  0  0  0  0  0  0  0  0  0  0
   -0.1305    1.5509    2.9736 H   0  0  0  0  0  0  0  0  0  0  0  0
    1.3498    1.4120    3.9245 H   0  0  0  0  0  0  0  0  0  0  0  0
    0.1298   -1.0585    2.5924 H   0  0  0  0  0  0  0  0  0  0  0  0
    1.6996   -1.2933    4.5086 H   0  0  0  0  0  0  0  0  0  0  0  0
    2.9468   -0.4412    3.5808 H   0  0  0  0  0  0  0  0  0  0  0  0
    2.3327   -2.0120    3.0277 H   0  0  0  0  0  0  0  0  0  0  0  0
    2.2713   -0.7440    1.1704 H   0  0  0  0  0  0  0  0  0  0  0  0
    2.2846    1.8619    2.0287 H   0  0  0  0  0  0  0  0  0  0  0  0
    3.3767    0.9570    1.0702 H   0  0  0  0  0  0  0  0  0  0  0  0
    1.8324    3.2279    0.3795 H   0  0  0  0  0  0  0  0  0  0  0  0
    3.9418    2.8758   -0.0973 H   0  0  0  0  0  0  0  0  0  0  0  0
    1.2527    3.7739   -2.1475 H   0  0  0  0  0  0  0  0  0  0  0  0
    2.1131    2.4359   -2.9032 H   0  0  0  0  0  0  0  0  0  0  0  0
    0.3708    2.5890   -3.0780 H   0  0  0  0  0  0  0  0  0  0  0  0
   -0.4617    3.4733   -0.4896 H   0  0  0  0  0  0  0  0  0  0  0  0
   -4.1841    3.1672    2.3663 H   0  0  0  0  0  0  0  0  0  0  0  0
   -2.7531    2.2399    2.7856 H   0  0  0  0  0  0  0  0  0  0  0  0
   -5.2585    1.2748    3.1032 H   0  0  0  0  0  0  0  0  0  0  0  0
   -5.1666    0.9310    1.4016 H   0  0  0  0  0  0  0  0  0  0  0  0
   -2.8027    0.5926    4.3978 H   0  0  0  0  0  0  0  0  0  0  0  0
   -2.9150   -1.1709    4.4183 H   0  0  0  0  0  0  0  0  0  0  0  0
   -4.3400   -0.1815    4.7748 H   0  0  0  0  0  0  0  0  0  0  0  0
   -5.2591   -1.4804    1.4675 H   0  0  0  0  0  0  0  0  0  0  0  0
   -4.3457   -2.3978    2.6714 H   0  0  0  0  0  0  0  0  0  0  0  0
   -5.6581   -1.3229    3.1615 H   0  0  0  0  0  0  0  0  0  0  0  0
   -2.2493   -1.5911    1.9899 H   0  0  0  0  0  0  0  0  0  0  0  0
   -1.7047   -0.0078    2.4488 H   0  0  0  0  0  0  0  0  0  0  0  0
   -0.9151   -1.9064    0.4340 H   0  0  0  0  0  0  0  0  0  0  0  0
   -0.1846   -2.3317   -1.6209 H   0  0  0  0  0  0  0  0  0  0  0  0
   -1.7291   -1.7279   -2.0733 H   0  0  0  0  0  0  0  0  0  0  0  0
    0.6738    0.1988   -5.0797 H   0  0  0  0  0  0  0  0  0  0  0  0
    2.3162   -1.9377   -4.6237 H   0  0  0  0  0  0  0  0  0  0  0  0
   -0.1539   -2.2817   -5.0660 H   0  0  0  0  0  0  0  0  0  0  0  0
    0.8273   -3.7360   -4.7950 H   0  0  0  0  0  0  0  0  0  0  0  0
   -0.2377   -3.1834   -3.5388 H   0  0  0  0  0  0  0  0  0  0  0  0
    3.9741   -1.1436   -0.1864 H   0  0  0  0  0  0  0  0  0  0  0  0
    2.7830   -2.4818   -0.1625 H   0  0  0  0  0  0  0  0  0  0  0  0
    4.3398   -2.7344   -0.8575 H   0  0  0  0  0  0  0  0  0  0  0  0
    5.0128   -0.6215   -2.5012 H   0  0  0  0  0  0  0  0  0  0  0  0
    4.8288   -2.2614   -3.1808 H   0  0  0  0  0  0  0  0  0  0  0  0
    4.0810   -0.8794   -3.9674 H   0  0  0  0  0  0  0  0  0  0  0  0
    2.8815    0.5579   -2.3586 H   0  0  0  0  0  0  0  0  0  0  0  0
    1.0938   -1.4307   -0.1667 H   0  0  0  0  0  0  0  0  0  0  0  0
  2  1  1  0  0  0  0
  3  2  1  0  0  0  0
  4  2  1  0  0  0  0
  5  4  1  0  0  0  0
  6  5  1  0  0  0  0
  7  6  1  0  0  0  0
  8  6  1  0  0  0  0
  9  8  1  0  0  0  0
 10  8  1  0  0  0  0
 11 10  1  0  0  0  0
 12 11  1  0  0  0  0
 13 12  1  0  0  0  0
 13 10  1  0  0  0  0
 14 12  1  0  0  0  0
 15 14  2  0  0  0  0
 16 14  1  0  0  0  0
 17 16  1  0  0  0  0
 18 17  1  0  0  0  0
 19 18  1  0  0  0  0
 20 18  1  0  0  0  0
 21 18  1  0  0  0  0
 22 21  1  0  0  0  0
 22 12  1  0  0  0  0
 23 22  1  0  0  0  0
 24 22  1  0  0  0  0
 25 24  1  0  0  0  0
 26 25  1  0  0  0  0
 27 26  1  0  0  0  0
 28 27  3  0  0  0  0
 29 26  1  0  0  0  0
 30 29  1  0  0  0  0
 31 29  1  0  0  0  0
 32 31  1  0  0  0  0
 33 31  1  0  0  0  0
 34 33  1  0  0  0  0
 35 34  1  0  0  0  0
 36 34  1  0  0  0  0
 37 34  1  0  0  0  0
 37 29  1  0  0  0  0
 38 37  1  0  0  0  0
 38  8  1  0  0  0  0
 38 26  1  0  0  0  0
 39 38  1  0  0  0  0
 39  4  1  0  0  0  0
 39 24  1  0  0  0  0
  1 40  1  0  0  0  0
  1 41  1  0  0  0  0
  1 42  1  0  0  0  0
  2 43  1  0  0  0  0
  3 44  1  0  0  0  0
  3 45  1  0  0  0  0
  3 46  1  0  0  0  0
  4 47  1  0  0  0  0
  5 48  1  0  0  0  0
  5 49  1  0  0  0  0
  6 50  1  0  0  0  0
  7 51  1  0  0  0  0
  9 52  1  0  0  0  0
  9 53  1  0  0  0  0
  9 54  1  0  0  0  0
 10 55  1  0  0  0  0
 16 56  1  0  0  0  0
 16 57  1  0  0  0  0
 17 58  1  0  0  0  0
 17 59  1  0  0  0  0
 19 60  1  0  0  0  0
 19 61  1  0  0  0  0
 19 62  1  0  0  0  0
 20 63  1  0  0  0  0
 20 64  1  0  0  0  0
 20 65  1  0  0  0  0
 21 66  1  0  0  0  0
 21 67  1  0  0  0  0
 24 68  1  0  0  0  0
 25 69  1  0  0  0  0
 25 70  1  0  0  0  0
 30 71  1  0  0  0  0
 31 72  1  0  0  0  0
 32 73  1  0  0  0  0
 32 74  1  0  0  0  0
 32 75  1  0  0  0  0
 35 76  1  0  0  0  0
 35 77  1  0  0  0  0
 35 78  1  0  0  0  0
 36 79  1  0  0  0  0
 36 80  1  0  0  0  0
 36 81  1  0  0  0  0
 37 82  1  0  0  0  0
 39 83  1  0  0  0  0
M  END
>  <energy>
276.16828086700656

$$$$
