O=C(CCCN1CCN(c2cccc(O)c2-c2nc[nH]n2)CC1)NC1C(C(F)F)CC2CC3CC1(C2)C3
                    3D

 73 78  0  0  0  0  0  0  0  0999 V2000
   -0.7097   -1.4033    3.4861 O   0  0  0  0  0  0  0  0  0  0  0  0
   -0.1777   -0.4658    2.8876 C   0  0  0  0  0  0  0  0  0  0  0  0
   -0.7264    0.9430    2.9634 C   0  0  0  0  0  0  0  0  0  0  0  0
   -1.7151    1.1528    1.8216 C   0  0  0  0  0  0  0  0  0  0  0  0
   -2.1032    2.6216    1.6278 C   0  0  0  0  0  0  0  0  0  0  0  0
   -2.6306    3.0057    0.3096 N   0  0  0  0  0  0  0  0  0  0  0  0
   -1.6040    3.0822   -0.7504 C   0  0  0  0  0  0  0  0  0  0  0  0
   -1.2219    1.7635   -1.4784 C   0  0  0  0  0  0  0  0  0  0  0  0
   -2.3612    0.8333   -1.5379 N   0  0  0  0  0  0  0  0  0  0  0  0
   -2.2702   -0.2541   -2.4078 C   0  0  0  0  0  0  0  0  0  0  0  0
   -2.1002   -0.0502   -3.7904 C   0  0  0  0  0  0  0  0  0  0  0  0
   -1.9279   -1.1227   -4.6674 C   0  0  0  0  0  0  0  0  0  0  0  0
   -1.8983   -2.4225   -4.1760 C   0  0  0  0  0  0  0  0  0  0  0  0
   -2.0812   -2.6477   -2.8154 C   0  0  0  0  0  0  0  0  0  0  0  0
   -2.0072   -3.9573   -2.4057 O   0  0  0  0  0  0  0  0  0  0  0  0
   -2.3106   -1.5842   -1.9232 C   0  0  0  0  0  0  0  0  0  0  0  0
   -2.5890   -1.8810   -0.5192 C   0  0  0  0  0  0  0  0  0  0  0  0
   -3.7124   -1.4334    0.1440 N   0  0  0  0  0  0  0  0  0  0  0  0
   -3.5936   -1.9575    1.3426 C   0  0  0  0  0  0  0  0  0  0  0  0
   -2.4553   -2.6962    1.3993 N   0  0  0  0  0  0  0  0  0  0  0  0
   -1.8599   -2.7635    0.1928 N   0  0  0  0  0  0  0  0  0  0  0  0
   -3.6796    1.4732   -1.4683 C   0  0  0  0  0  0  0  0  0  0  0  0
   -3.8102    2.2119   -0.1130 C   0  0  0  0  0  0  0  0  0  0  0  0
    0.8961   -0.7274    2.0825 N   0  0  0  0  0  0  0  0  0  0  0  0
    1.6545    0.1905    1.2485 C   0  0  0  0  0  0  0  0  0  0  0  0
    2.9038    0.9192    1.9099 C   0  0  0  0  0  0  0  0  0  0  0  0
    3.1132    0.5753    3.3790 C   0  0  0  0  0  0  0  0  0  0  0  0
    2.0564    0.9938    4.1157 F   0  0  0  0  0  0  0  0  0  0  0  0
    4.1848    1.2651    3.8499 F   0  0  0  0  0  0  0  0  0  0  0  0
    4.3016    0.8008    1.1402 C   0  0  0  0  0  0  0  0  0  0  0  0
    4.2707    0.5392   -0.3963 C   0  0  0  0  0  0  0  0  0  0  0  0
    4.7152   -0.8724   -0.8975 C   0  0  0  0  0  0  0  0  0  0  0  0
    3.5655   -1.9304   -0.7842 C   0  0  0  0  0  0  0  0  0  0  0  0
    3.0673   -1.8066    0.6391 C   0  0  0  0  0  0  0  0  0  0  0  0
    2.2014   -0.5260    0.0259 C   0  0  0  0  0  0  0  0  0  0  0  0
    2.8400    0.6423   -0.8143 C   0  0  0  0  0  0  0  0  0  0  0  0
    2.0113   -1.6003   -1.1196 C   0  0  0  0  0  0  0  0  0  0  0  0
   -1.2167    1.0822    3.9336 H   0  0  0  0  0  0  0  0  0  0  0  0
    0.0942    1.6644    2.9190 H   0  0  0  0  0  0  0  0  0  0  0  0
   -1.2853    0.7358    0.9155 H   0  0  0  0  0  0  0  0  0  0  0  0
   -2.6101    0.5576    2.0203 H   0  0  0  0  0  0  0  0  0  0  0  0
   -2.8631    2.8719    2.3817 H   0  0  0  0  0  0  0  0  0  0  0  0
   -1.2467    3.2650    1.8628 H   0  0  0  0  0  0  0  0  0  0  0  0
   -2.0016    3.7684   -1.5115 H   0  0  0  0  0  0  0  0  0  0  0  0
   -0.6971    3.5813   -0.3850 H   0  0  0  0  0  0  0  0  0  0  0  0
   -0.8408    2.0125   -2.4748 H   0  0  0  0  0  0  0  0  0  0  0  0
   -0.3993    1.2744   -0.9452 H   0  0  0  0  0  0  0  0  0  0  0  0
   -2.1072    0.9590   -4.1942 H   0  0  0  0  0  0  0  0  0  0  0  0
   -1.8087   -0.9439   -5.7322 H   0  0  0  0  0  0  0  0  0  0  0  0
   -1.7368   -3.2638   -4.8422 H   0  0  0  0  0  0  0  0  0  0  0  0
   -1.9163   -3.9436   -1.4277 H   0  0  0  0  0  0  0  0  0  0  0  0
   -4.2544   -1.8131    2.1825 H   0  0  0  0  0  0  0  0  0  0  0  0
   -2.0317   -3.1425    2.2057 H   0  0  0  0  0  0  0  0  0  0  0  0
   -3.7873    2.1896   -2.2925 H   0  0  0  0  0  0  0  0  0  0  0  0
   -4.4919    0.7434   -1.5627 H   0  0  0  0  0  0  0  0  0  0  0  0
   -4.6621    2.8980   -0.1763 H   0  0  0  0  0  0  0  0  0  0  0  0
   -4.0974    1.4831    0.6538 H   0  0  0  0  0  0  0  0  0  0  0  0
    1.1179   -1.7165    2.0804 H   0  0  0  0  0  0  0  0  0  0  0  0
    0.9535    0.9678    0.9257 H   0  0  0  0  0  0  0  0  0  0  0  0
    2.6526    1.9918    1.8814 H   0  0  0  0  0  0  0  0  0  0  0  0
    3.2766   -0.4912    3.5639 H   0  0  0  0  0  0  0  0  0  0  0  0
    4.8079    1.7646    1.2944 H   0  0  0  0  0  0  0  0  0  0  0  0
    4.9603    0.0733    1.6288 H   0  0  0  0  0  0  0  0  0  0  0  0
    4.8909    1.2960   -0.8887 H   0  0  0  0  0  0  0  0  0  0  0  0
    5.5963   -1.2069   -0.3380 H   0  0  0  0  0  0  0  0  0  0  0  0
    5.0119   -0.8000   -1.9511 H   0  0  0  0  0  0  0  0  0  0  0  0
    3.8994   -2.9272   -1.0844 H   0  0  0  0  0  0  0  0  0  0  0  0
    3.8196   -1.6598    1.4139 H   0  0  0  0  0  0  0  0  0  0  0  0
    2.4829   -2.6732    0.9749 H   0  0  0  0  0  0  0  0  0  0  0  0
    2.4102    1.6280   -0.5887 H   0  0  0  0  0  0  0  0  0  0  0  0
    2.7318    0.5383   -1.9004 H   0  0  0  0  0  0  0  0  0  0  0  0
    1.8145   -1.2720   -2.1441 H   0  0  0  0  0  0  0  0  0  0  0  0
    1.2975   -2.4038   -0.8993 H   0  0  0  0  0  0  0  0  0  0  0  0
  2  1  2  0  0  0  0
  3  2  1  0  0  0  0
  4  3  1  0  0  0  0
  5  4  1  0  0  0  0
  6  5  1  0  0  0  0
  7  6  1  0  0  0  0
  8  7  1  0  0  0  0
  9  8  1  0  0  0  0
 10  9  1  0  0  0  0
 11 10  2  0  0  0  0
 12 11  1  0  0  0  0
 13 12  2  0  0  0  0
 14 13  1  0  0  0  0
 15 14  1  0  0  0  0
 16 14  2  0  0  0  0
 16 10  1  0  0  0  0
 17 16  1  0  0  0  0
 18 17  1  0  0  0  0
 19 18  2  0  0  0  0
 20 19  1  0  0  0  0
 21 20  1  0  0  0  0
 21 17  2  0  0  0  0
 22  9  1  0  0  0  0
 23 22  1  0  0  0  0
 23  6  1  0  0  0  0
 24  2  1  0  0  0  0
 25 24  1  0  0  0  0
 26 25  1  0  0  0  0
 27 26  1  0  0  0  0
 28 27  1  0  0  0  0
 29 27  1  0  0  0  0
 30 26  1  0  0  0  0
 31 30  1  0  0  0  0
 32 31  1  0  0  0  0
 33 32  1  0  0  0  0
 34 33  1  0  0  0  0
 35 34  1  0  0  0  0
 35 25  1  0  0  0  0
 36 35  1  0  0  0  0
 36 31  1  0  0  0  0
 37 35  1  0  0  0  0
 37 33  1  0  0  0  0
  3 38  1  0  0  0  0
  3 39  1  0  0  0  0
  4 40  1  0  0  0  0
  4 41  1  0  0  0  0
  5 42  1  0  0  0  0
  5 43  1  0  0  0  0
  7 44  1  0  0  0  0
  7 45  1  0  0  0  0
  8 46  1  0  0  0  0
  8 47  1  0  0  0  0
 11 48  1  0  0  0  0
 12 49  1  0  0  0  0
 13 50  1  0  0  0  0
 15 51  1  0  0  0  0
 19 52  1  0  0  0  0
 20 53  1  0  0  0  0
 22 54  1  0  0  0  0
 22 55  1  0  0  0  0
 23 56  1  0  0  0  0
 23 57  1  0  0  0  0
 24 58  1  0  0  0  0
 25 59  1  0  0  0  0
 26 60  1  0  0  0  0
 27 61  1  0  0  0  0
 30 62  1  0  0  0  0
 30 63  1  0  0  0  0
 31 64  1  0  0  0  0
 32 65  1  0  0  0  0
 32 66  1  0  0  0  0
 33 67  1  0  0  0  0
 34 68  1  0  0  0  0
 34 69  1  0  0  0  0
 36 70  1  0  0  0  0
 36 71  1  0  0  0  0
 37 72  1  0  0  0  0
 37 73  1  0  0  0  0
M  END
>  <energy>
213.06474413807069

$$$$
